<?xml version="1.0" encoding="UTF-8"?>

<!-- generated on Mon Sep  2 15:26:13 2013 by SUMO netconvert Version 0.16.0
<?xml version="1.0" encoding="UTF-8"?>

<configuration xmlns:xsi="http://www.w3.org/2001/XMLSchema-instance" xsi:noNamespaceSchemaLocation="http://sumo.sf.net/xsd/netconvertConfiguration.xsd">

    <input>
        <osm-files value="Arrivee.osm"/>
    </input>

    <output>
        <output-file value="Arrivee.net.xml"/>
    </output>

    <projection>
        <proj.utm value="true"/>
    </projection>

    <edge_removal>
        <remove-edges.by-vclass value="hov,taxi,bus,delivery,transport,lightrail,cityrail,pedestrian,rail_slow,rail_fast,motorcycle,bicycle"/>
    </edge_removal>

    <processing>
        <no-turnarounds value="true"/>
        <junctions.join value="true"/>
    </processing>

</configuration>
-->

<net version="0.13" xmlns:xsi="http://www.w3.org/2001/XMLSchema-instance" xsi:noNamespaceSchemaLocation="http://sumo.sf.net/xsd/net_file.xsd">

    <location netOffset="-646193.72,-5069632.53" convBoundary="0.00,0.00,749.14,1265.42" origBoundary="4.880195,45.764729,4.889883,45.776103" projParameter="+proj=utm +zone=31 +ellps=WGS84 +datum=WGS84 +units=m +no_defs"/>

    <edge id=":110422035_0" function="internal">
        <lane id=":110422035_0_0" index="0" speed="13.89" length="0.10" shape="97.20,492.38 97.18,492.39"/>
    </edge>
    <edge id=":110422035_1" function="internal">
        <lane id=":110422035_1_0" index="0" speed="13.89" length="0.10" shape="96.45,489.17 96.42,489.17"/>
    </edge>
    <edge id=":1242371158_0" function="internal">
        <lane id=":1242371158_0_0" index="0" speed="13.89" length="0.10" shape="665.72,353.92 665.71,353.93"/>
    </edge>
    <edge id=":1242371158_1" function="internal">
        <lane id=":1242371158_1_0" index="0" speed="13.89" length="0.10" shape="664.93,350.72 664.92,350.72"/>
    </edge>
    <edge id=":1423419182_0" function="internal">
        <lane id=":1423419182_0_0" index="0" speed="22.22" length="3.16" shape="320.07,384.80 320.23,383.87 320.56,383.58 321.05,383.92 321.72,384.89"/>
    </edge>
    <edge id=":1433944471_0" function="internal">
        <lane id=":1433944471_0_0" index="0" speed="13.89" length="0.10" shape="203.42,445.07 203.42,445.07"/>
    </edge>
    <edge id=":1438132871_0" function="internal">
        <lane id=":1438132871_0_0" index="0" speed="22.22" length="0.10" shape="628.92,552.50 628.92,552.50"/>
    </edge>
    <edge id=":1438132871_1" function="internal">
        <lane id=":1438132871_1_0" index="0" speed="22.22" length="0.10" shape="629.74,549.30 629.74,549.30"/>
    </edge>
    <edge id=":1575752049_0" function="internal">
        <lane id=":1575752049_0_0" index="0" speed="22.22" length="1.86" shape="292.72,474.39 293.35,472.64"/>
    </edge>
    <edge id=":1575752049_1" function="internal">
        <lane id=":1575752049_1_0" index="0" speed="22.22" length="4.37" shape="294.94,468.18 291.10,470.25"/>
    </edge>
    <edge id=":1608224782_0" function="internal">
        <lane id=":1608224782_0_0" index="0" speed="13.89" length="5.09" shape="599.26,883.87 597.93,884.10 596.97,884.73 596.39,885.75 596.17,887.16"/>
    </edge>
    <edge id=":1608224782_1" function="internal">
        <lane id=":1608224782_1_0" index="0" speed="13.89" length="9.44" shape="599.26,883.87 589.81,883.96"/>
    </edge>
    <edge id=":1608224782_2" function="internal">
        <lane id=":1608224782_2_0" index="0" speed="13.89" length="9.33" shape="589.84,880.66 599.17,880.57"/>
    </edge>
    <edge id=":1608224782_3" function="internal">
        <lane id=":1608224782_3_0" index="0" speed="13.89" length="7.03" shape="589.84,880.66 592.65,881.08 594.65,882.31 595.57,883.90"/>
    </edge>
    <edge id=":1608224782_6" function="internal">
        <lane id=":1608224782_6_0" index="0" speed="13.89" length="3.34" shape="595.57,883.90 595.82,884.33 596.17,887.16"/>
    </edge>
    <edge id=":1608224782_4" function="internal">
        <lane id=":1608224782_4_0" index="0" speed="13.89" length="5.01" shape="592.87,887.10 592.70,885.73 592.14,884.75 591.17,884.16 589.81,883.96"/>
    </edge>
    <edge id=":1608224782_5" function="internal">
        <lane id=":1608224782_5_0" index="0" speed="13.89" length="10.24" shape="592.87,887.10 593.31,884.31 594.50,882.29 596.46,881.04 599.17,880.57"/>
    </edge>
    <edge id=":1608224794_0" function="internal">
        <lane id=":1608224794_0_0" index="0" speed="13.89" length="9.50" shape="564.99,886.89 564.99,877.39"/>
    </edge>
    <edge id=":1608224794_1" function="internal">
        <lane id=":1608224794_1_0" index="0" speed="13.89" length="7.15" shape="564.99,886.89 565.39,884.08 566.60,882.08 568.29,881.08"/>
    </edge>
    <edge id=":1608224794_6" function="internal">
        <lane id=":1608224794_6_0" index="0" speed="13.89" length="3.22" shape="568.29,881.08 568.61,880.89 571.43,880.51"/>
    </edge>
    <edge id=":1608224794_2" function="internal">
        <lane id=":1608224794_2_0" index="0" speed="13.89" length="5.01" shape="571.40,883.81 570.04,883.99 569.07,884.57 568.48,885.53 568.29,886.89"/>
    </edge>
    <edge id=":1608224794_3" function="internal">
        <lane id=":1608224794_3_0" index="0" speed="13.89" length="10.32" shape="571.40,883.81 568.60,883.39 566.59,882.18 565.39,880.18 564.99,877.39"/>
    </edge>
    <edge id=":1608224794_4" function="internal">
        <lane id=":1608224794_4_0" index="0" speed="13.89" length="5.03" shape="568.29,877.39 568.49,878.75 569.08,879.72 570.06,880.30 571.43,880.51"/>
    </edge>
    <edge id=":1608224794_5" function="internal">
        <lane id=":1608224794_5_0" index="0" speed="13.89" length="9.50" shape="568.29,877.39 568.29,886.89"/>
    </edge>
    <edge id=":1637473438_0" function="internal">
        <lane id=":1637473438_0_0" index="0" speed="18.06" length="5.20" shape="632.00,558.29 631.76,556.04 631.74,554.48 631.95,553.59 632.38,553.39"/>
    </edge>
    <edge id=":1637473438_1" function="internal">
        <lane id=":1637473438_1_0" index="0" speed="18.06" length="5.55" shape="638.51,554.97 636.90,554.79 635.82,555.20 635.28,556.22 635.27,557.85"/>
    </edge>
    <edge id=":1637473438_2" function="internal">
        <lane id=":1637473438_2_0" index="0" speed="22.22" length="6.33" shape="638.51,554.97 632.38,553.39"/>
    </edge>
    <edge id=":1637473438_3" function="internal">
        <lane id=":1637473438_3_0" index="0" speed="22.22" length="6.33" shape="639.33,551.77 633.20,550.20"/>
    </edge>
    <edge id=":1637473441_0" function="internal">
        <lane id=":1637473441_0_0" index="0" speed="22.22" length="9.95" shape="654.97,669.80 646.26,674.62"/>
    </edge>
    <edge id=":1637473441_1" function="internal">
        <lane id=":1637473441_1_0" index="0" speed="18.06" length="7.70" shape="654.97,669.80 651.71,671.26 649.20,671.01 648.13,669.81"/>
    </edge>
    <edge id=":1637473441_6" function="internal">
        <lane id=":1637473441_6_0" index="0" speed="18.06" length="4.83" shape="648.13,669.81 647.45,669.05 646.46,665.37"/>
    </edge>
    <edge id=":1637473441_2" function="internal">
        <lane id=":1637473441_2_0" index="0" speed="18.06" length="5.52" shape="649.73,664.93 650.17,666.54 650.94,667.39 652.05,667.49 653.50,666.84"/>
    </edge>
    <edge id=":1637473441_3" function="internal">
        <lane id=":1637473441_3_0" index="0" speed="18.06" length="11.00" shape="649.73,664.93 649.89,668.33 649.37,671.08 648.16,673.17 646.26,674.62"/>
    </edge>
    <edge id=":1637473441_4" function="internal">
        <lane id=":1637473441_4_0" index="0" speed="18.06" length="6.91" shape="644.79,671.66 645.78,670.83 646.39,669.50 646.61,667.68 646.46,665.37"/>
    </edge>
    <edge id=":1637473441_5" function="internal">
        <lane id=":1637473441_5_0" index="0" speed="22.22" length="9.96" shape="644.79,671.66 653.50,666.84"/>
    </edge>
    <edge id=":1637473443_0" function="internal">
        <lane id=":1637473443_0_0" index="0" speed="18.06" length="5.93" shape="425.59,730.86 424.32,731.15 423.31,731.95 422.56,733.23 422.08,735.02"/>
    </edge>
    <edge id=":1637473443_1" function="internal">
        <lane id=":1637473443_1_0" index="0" speed="22.22" length="9.63" shape="425.59,730.86 415.96,731.16"/>
    </edge>
    <edge id=":1637473443_2" function="internal">
        <lane id=":1637473443_2_0" index="0" speed="22.22" length="9.63" shape="415.86,727.86 425.48,727.56"/>
    </edge>
    <edge id=":1637473443_3" function="internal">
        <lane id=":1637473443_3_0" index="0" speed="18.06" length="7.28" shape="415.86,727.86 419.06,728.22 421.16,729.54 421.80,730.98"/>
    </edge>
    <edge id=":1637473443_6" function="internal">
        <lane id=":1637473443_6_0" index="0" speed="18.06" length="4.12" shape="421.80,730.98 422.17,731.80 422.08,735.02"/>
    </edge>
    <edge id=":1637473443_4" function="internal">
        <lane id=":1637473443_4_0" index="0" speed="18.06" length="5.26" shape="418.83,734.46 418.87,732.98 418.41,731.93 417.43,731.33 415.96,731.16"/>
    </edge>
    <edge id=":1637473443_5" function="internal">
        <lane id=":1637473443_5_0" index="0" speed="18.06" length="10.49" shape="418.83,734.46 419.68,731.51 421.07,729.37 423.01,728.06 425.48,727.56"/>
    </edge>
    <edge id=":1719261309_0" function="internal">
        <lane id=":1719261309_0_0" index="0" speed="22.22" length="0.10" shape="503.80,521.35 503.80,521.35"/>
    </edge>
    <edge id=":1719261309_1" function="internal">
        <lane id=":1719261309_1_0" index="0" speed="22.22" length="0.10" shape="504.54,518.13 504.54,518.13"/>
    </edge>
    <edge id=":1719261340_0" function="internal">
        <lane id=":1719261340_0_0" index="0" speed="13.89" length="0.10" shape="490.00,397.35 490.02,397.35"/>
    </edge>
    <edge id=":1719261340_1" function="internal">
        <lane id=":1719261340_1_0" index="0" speed="13.89" length="0.10" shape="489.21,394.15 489.22,394.15"/>
    </edge>
    <edge id=":1722236640_0" function="internal">
        <lane id=":1722236640_0_0" index="0" speed="22.22" length="0.10" shape="353.04,511.42 353.04,511.42"/>
    </edge>
    <edge id=":1722236640_1" function="internal">
        <lane id=":1722236640_1_0" index="0" speed="22.22" length="0.10" shape="356.32,511.05 356.32,511.05"/>
    </edge>
    <edge id=":1722236654_0" function="internal">
        <lane id=":1722236654_0_0" index="0" speed="22.22" length="0.99" shape="295.43,475.29 294.48,475.02"/>
    </edge>
    <edge id=":1722236654_1" function="internal">
        <lane id=":1722236654_1_0" index="0" speed="22.22" length="0.59" shape="296.15,472.07 295.58,471.91"/>
    </edge>
    <edge id=":1722236654_2" function="internal">
        <lane id=":1722236654_2_0" index="0" speed="22.22" length="0.19" shape="296.88,468.85 296.69,468.80"/>
    </edge>
    <edge id=":1722236658_0" function="internal">
        <lane id=":1722236658_0_0" index="0" speed="22.22" length="0.10" shape="355.45,533.25 355.45,533.25"/>
    </edge>
    <edge id=":1722236658_1" function="internal">
        <lane id=":1722236658_1_0" index="0" speed="22.22" length="0.10" shape="358.73,532.89 358.73,532.89"/>
    </edge>
    <edge id=":1847976654_0" function="internal">
        <lane id=":1847976654_0_0" index="0" speed="18.06" length="0.10" shape="263.59,434.72 263.59,434.72"/>
    </edge>
    <edge id=":190817696_0" function="internal">
        <lane id=":190817696_0_0" index="0" speed="22.22" length="0.70" shape="531.18,724.34 530.50,724.48"/>
    </edge>
    <edge id=":190817696_1" function="internal">
        <lane id=":190817696_1_0" index="0" speed="22.22" length="0.23" shape="530.06,721.21 530.28,721.16"/>
    </edge>
    <edge id=":190817699_0" function="internal">
        <lane id=":190817699_0_0" index="0" speed="18.06" length="5.37" shape="565.05,718.35 564.83,716.83 564.18,715.89 563.09,715.52 561.57,715.72"/>
    </edge>
    <edge id=":190817699_1" function="internal">
        <lane id=":190817699_1_0" index="0" speed="13.89" length="11.71" shape="565.05,718.35 565.02,715.12 564.92,712.50 564.70,709.89 564.33,706.67"/>
    </edge>
    <edge id=":190817699_2" function="internal">
        <lane id=":190817699_2_0" index="0" speed="18.06" length="12.55" shape="565.05,718.35 565.45,715.17 566.65,712.44 568.64,710.16 571.44,708.34"/>
    </edge>
    <edge id=":190817699_3" function="internal">
        <lane id=":190817699_3_0" index="0" speed="18.06" length="8.89" shape="572.91,711.29 570.92,712.59 569.49,714.20 568.63,716.12 568.35,718.35"/>
    </edge>
    <edge id=":190817699_4" function="internal">
        <lane id=":190817699_4_0" index="0" speed="22.22" length="12.20" shape="572.91,711.29 569.93,712.74 567.37,713.83 564.74,714.77 561.57,715.72"/>
    </edge>
    <edge id=":190817699_5" function="internal">
        <lane id=":190817699_5_0" index="0" speed="18.06" length="7.72" shape="572.91,711.29 569.54,712.42 566.98,712.03 565.92,710.86"/>
    </edge>
    <edge id=":190817699_12" function="internal">
        <lane id=":190817699_12_0" index="0" speed="18.06" length="4.57" shape="565.92,710.86 565.25,710.11 564.33,706.67"/>
    </edge>
    <edge id=":190817699_6" function="internal">
        <lane id=":190817699_6_0" index="0" speed="18.06" length="5.48" shape="567.61,706.28 568.02,707.81 568.79,708.67 569.93,708.84 571.44,708.34"/>
    </edge>
    <edge id=":190817699_7" function="internal">
        <lane id=":190817699_7_0" index="0" speed="13.89" length="12.11" shape="567.61,706.28 567.98,709.56 568.20,712.30 568.32,715.06 568.35,718.35"/>
    </edge>
    <edge id=":190817699_8" function="internal">
        <lane id=":190817699_8_0" index="0" speed="18.06" length="12.38" shape="567.61,706.28 567.57,709.67 566.55,712.38 564.55,714.39 561.57,715.72"/>
    </edge>
    <edge id=":190817699_9" function="internal">
        <lane id=":190817699_9_0" index="0" speed="18.06" length="7.65" shape="560.67,712.55 562.48,711.73 563.70,710.48 564.32,708.79 564.33,706.67"/>
    </edge>
    <edge id=":190817699_10" function="internal">
        <lane id=":190817699_10_0" index="0" speed="22.22" length="11.58" shape="560.67,712.55 563.75,711.63 566.18,710.77 568.54,709.75 571.44,708.34"/>
    </edge>
    <edge id=":190817699_11" function="internal">
        <lane id=":190817699_11_0" index="0" speed="18.06" length="7.15" shape="560.67,712.55 564.03,712.09 566.43,712.91 567.13,713.92"/>
    </edge>
    <edge id=":190817699_13" function="internal">
        <lane id=":190817699_13_0" index="0" speed="18.06" length="4.70" shape="567.13,713.92 567.87,715.00 568.35,718.35"/>
    </edge>
    <edge id=":190817717_0" function="internal">
        <lane id=":190817717_0_0" index="0" speed="13.89" length="5.19" shape="530.64,387.36 529.44,387.89 528.64,388.73 528.24,389.90 528.24,391.38"/>
    </edge>
    <edge id=":190817717_1" function="internal">
        <lane id=":190817717_1_0" index="0" speed="13.89" length="6.20" shape="530.64,387.36 524.63,388.88"/>
    </edge>
    <edge id=":190817717_2" function="internal">
        <lane id=":190817717_2_0" index="0" speed="13.89" length="6.14" shape="523.85,385.68 529.80,384.17"/>
    </edge>
    <edge id=":190817717_3" function="internal">
        <lane id=":190817717_3_0" index="0" speed="13.89" length="4.89" shape="523.85,385.68 525.47,385.70 526.74,386.66 527.48,388.16"/>
    </edge>
    <edge id=":190817717_4" function="internal">
        <lane id=":190817717_4_0" index="0" speed="13.89" length="3.32" shape="527.48,388.16 527.67,388.55 528.24,391.38"/>
    </edge>
    <edge id=":190817752_0" function="internal">
        <lane id=":190817752_0_0" index="0" speed="22.22" length="6.28" shape="314.70,737.01 313.46,737.40 312.47,738.30 311.72,739.74 311.22,741.70"/>
    </edge>
    <edge id=":190817752_1" function="internal">
        <lane id=":190817752_1_0" index="0" speed="22.22" length="9.76" shape="314.70,737.01 304.99,737.96"/>
    </edge>
    <edge id=":190817752_2" function="internal">
        <lane id=":190817752_2_0" index="0" speed="22.22" length="9.81" shape="304.65,734.67 314.41,733.73"/>
    </edge>
    <edge id=":190817752_3" function="internal">
        <lane id=":190817752_3_0" index="0" speed="22.22" length="7.41" shape="304.65,734.67 308.02,734.81 310.25,736.02 310.88,737.39"/>
    </edge>
    <edge id=":190817752_6" function="internal">
        <lane id=":190817752_6_0" index="0" speed="22.22" length="4.41" shape="310.88,737.39 311.31,738.32 311.22,741.70"/>
    </edge>
    <edge id=":190817752_4" function="internal">
        <lane id=":190817752_4_0" index="0" speed="22.22" length="5.36" shape="307.97,741.14 308.01,739.61 307.53,738.57 306.52,738.02 304.99,737.96"/>
    </edge>
    <edge id=":190817752_5" function="internal">
        <lane id=":190817752_5_0" index="0" speed="22.22" length="10.64" shape="307.97,741.14 308.82,738.07 310.17,735.81 312.04,734.36 314.41,733.73"/>
    </edge>
    <edge id=":190823168_0" function="internal">
        <lane id=":190823168_0_0" index="0" speed="18.06" length="7.34" shape="543.81,535.50 543.35,533.24 542.58,531.52 541.48,530.35 540.08,529.72"/>
    </edge>
    <edge id=":190823168_1" function="internal">
        <lane id=":190823168_1_0" index="0" speed="18.06" length="5.53" shape="550.35,532.25 548.75,532.07 547.68,532.48 547.12,533.50 547.09,535.11"/>
    </edge>
    <edge id=":190823168_2" function="internal">
        <lane id=":190823168_2_0" index="0" speed="22.22" length="10.58" shape="550.35,532.25 547.31,531.46 545.23,530.93 543.14,530.43 540.08,529.72"/>
    </edge>
    <edge id=":190823168_3" function="internal">
        <lane id=":190823168_3_0" index="0" speed="22.22" length="10.67" shape="551.18,529.05 548.11,528.26 546.01,527.73 543.90,527.22 540.82,526.50"/>
    </edge>
    <edge id=":190823168_4" function="internal">
        <lane id=":190823168_4_0" index="0" speed="13.89" length="11.93" shape="544.05,523.60 544.69,526.79 545.57,529.35 546.45,531.91 547.09,535.11"/>
    </edge>
    <edge id=":190823168_5" function="internal">
        <lane id=":190823168_5_0" index="0" speed="18.06" length="5.48" shape="544.05,523.60 544.02,525.19 543.47,526.20 542.40,526.64 540.82,526.50"/>
    </edge>
    <edge id=":321238836_0" function="internal">
        <lane id=":321238836_0_0" index="0" speed="22.22" length="5.04" shape="365.14,620.12 364.78,618.81 364.07,617.92 363.02,617.46 361.63,617.42"/>
    </edge>
    <edge id=":321238836_1" function="internal">
        <lane id=":321238836_1_0" index="0" speed="22.22" length="9.47" shape="365.14,620.12 364.02,610.72"/>
    </edge>
    <edge id=":321238836_2" function="internal">
        <lane id=":321238836_2_0" index="0" speed="22.22" length="9.41" shape="367.30,610.35 368.42,619.70"/>
    </edge>
    <edge id=":321238836_3" function="internal">
        <lane id=":321238836_3_0" index="0" speed="22.22" length="7.08" shape="367.30,610.35 367.21,613.19 366.23,615.31 364.71,616.46"/>
    </edge>
    <edge id=":321238836_6" function="internal">
        <lane id=":321238836_6_0" index="0" speed="22.22" length="3.25" shape="364.71,616.46 364.37,616.72 361.63,617.42"/>
    </edge>
    <edge id=":321238836_4" function="internal">
        <lane id=":321238836_4_0" index="0" speed="22.22" length="5.00" shape="361.27,614.14 362.60,613.80 363.50,613.12 363.97,612.09 364.02,610.72"/>
    </edge>
    <edge id=":321238836_5" function="internal">
        <lane id=":321238836_5_0" index="0" speed="22.22" length="10.28" shape="361.27,614.14 364.10,614.23 366.23,615.18 367.67,617.01 368.42,619.70"/>
    </edge>
    <edge id=":58584497_0" function="internal">
        <lane id=":58584497_0_0" index="0" speed="13.89" length="9.55" shape="375.23,426.27 365.88,428.23"/>
    </edge>
    <edge id=":58584497_1" function="internal">
        <lane id=":58584497_1_0" index="0" speed="13.89" length="7.25" shape="375.23,426.27 371.90,426.43 369.59,425.43 368.87,424.23"/>
    </edge>
    <edge id=":58584497_6" function="internal">
        <lane id=":58584497_6_0" index="0" speed="13.89" length="4.45" shape="368.87,424.23 368.29,423.27 368.02,419.95"/>
    </edge>
    <edge id=":58584497_2" function="internal">
        <lane id=":58584497_2_0" index="0" speed="13.89" length="5.33" shape="371.31,420.15 371.44,421.66 372.03,422.65 373.08,423.10 374.60,423.03"/>
    </edge>
    <edge id=":58584497_3" function="internal">
        <lane id=":58584497_3_0" index="0" speed="13.89" length="10.50" shape="371.31,420.15 370.82,423.24 369.75,425.62 368.10,427.28 365.88,428.23"/>
    </edge>
    <edge id=":58584497_4" function="internal">
        <lane id=":58584497_4_0" index="0" speed="13.89" length="6.25" shape="365.13,425.02 366.29,424.47 367.16,423.44 367.74,421.94 368.02,419.95"/>
    </edge>
    <edge id=":58584497_5" function="internal">
        <lane id=":58584497_5_0" index="0" speed="13.89" length="9.67" shape="365.13,425.02 374.60,423.03"/>
    </edge>
    <edge id=":58584537_0" function="internal">
        <lane id=":58584537_0_0" index="0" speed="22.22" length="6.76" shape="206.36,449.25 199.89,447.30"/>
    </edge>
    <edge id=":58584537_1" function="internal">
        <lane id=":58584537_1_0" index="0" speed="18.06" length="3.31" shape="206.36,449.25 205.00,448.76 204.03,448.48 203.44,448.43 203.24,448.59"/>
    </edge>
    <edge id=":cluster_1367256170_58584526_0" function="internal">
        <lane id=":cluster_1367256170_58584526_0_0" index="0" speed="18.06" length="16.96" shape="240.50,462.56 236.47,462.06 232.05,461.96 227.64,462.26 223.64,462.95"/>
    </edge>
    <edge id=":cluster_1367256170_58584526_1" function="internal">
        <lane id=":cluster_1367256170_58584526_1_0" index="0" speed="22.22" length="18.66" shape="240.50,462.56 236.37,461.36 231.72,459.51 227.12,457.49 223.13,455.80"/>
    </edge>
    <edge id=":cluster_1367256170_58584526_2" function="internal">
        <lane id=":cluster_1367256170_58584526_2_0" index="0" speed="18.06" length="7.16" shape="240.50,462.56 234.35,460.96 233.71,460.46"/>
    </edge>
    <edge id=":cluster_1367256170_58584526_7" function="internal">
        <lane id=":cluster_1367256170_58584526_7_0" index="0" speed="18.06" length="10.47" shape="233.71,460.46 232.15,459.26 233.89,457.47 239.58,455.59"/>
    </edge>
    <edge id=":cluster_1367256170_58584526_3" function="internal">
        <lane id=":cluster_1367256170_58584526_3_0" index="0" speed="13.89" length="17.26" shape="240.39,458.79 236.41,459.79 232.02,460.89 227.63,461.98 223.64,462.95"/>
    </edge>
    <edge id=":cluster_1367256170_58584526_4" function="internal">
        <lane id=":cluster_1367256170_58584526_4_0" index="0" speed="18.06" length="17.72" shape="240.39,458.79 236.30,459.09 231.69,458.43 227.11,457.21 223.13,455.80"/>
    </edge>
    <edge id=":cluster_1367256170_58584526_5" function="internal">
        <lane id=":cluster_1367256170_58584526_5_0" index="0" speed="18.06" length="7.63" shape="222.87,459.74 225.28,458.92 226.13,457.98 225.42,456.94 223.13,455.80"/>
    </edge>
    <edge id=":cluster_1367256170_58584526_6" function="internal">
        <lane id=":cluster_1367256170_58584526_6_0" index="0" speed="13.89" length="17.23" shape="222.87,459.74 226.85,458.77 231.23,457.68 235.61,456.59 239.58,455.59"/>
    </edge>
    <edge id=":cluster_1423350612_1491969408_729763332_0" function="internal">
        <lane id=":cluster_1423350612_1491969408_729763332_0_0" index="0" speed="22.22" length="25.40" shape="350.76,490.82 349.15,489.11 344.68,487.14 337.34,484.92 327.14,482.43"/>
    </edge>
    <edge id=":cluster_1423350612_1491969408_729763332_1" function="internal">
        <lane id=":cluster_1423350612_1491969408_729763332_1_0" index="0" speed="22.22" length="27.67" shape="350.76,490.82 348.16,487.60 342.56,484.44 336.05,479.88 330.69,472.45"/>
    </edge>
    <edge id=":cluster_1423350612_1491969408_729763332_2" function="internal">
        <lane id=":cluster_1423350612_1491969408_729763332_2_0" index="0" speed="22.22" length="5.47" shape="357.29,487.56 355.71,487.43 354.64,487.86 354.09,488.87 354.04,490.45"/>
    </edge>
    <edge id=":cluster_1423350612_1491969408_729763332_3" function="internal">
        <lane id=":cluster_1423350612_1491969408_729763332_3_0" index="0" speed="22.22" length="30.60" shape="357.29,487.56 350.63,485.77 344.41,483.78 337.26,481.59 327.86,479.21"/>
    </edge>
    <edge id=":cluster_1423350612_1491969408_729763332_4" function="internal">
        <lane id=":cluster_1423350612_1491969408_729763332_4_0" index="0" speed="22.22" length="30.62" shape="358.03,484.35 351.37,482.56 345.14,480.56 337.99,478.37 328.58,475.99"/>
    </edge>
    <edge id=":cluster_1423350612_1491969408_729763332_5" function="internal">
        <lane id=":cluster_1423350612_1491969408_729763332_5_0" index="0" speed="22.22" length="29.49" shape="358.03,484.35 348.75,481.67 341.53,478.40 336.36,474.52 333.25,470.06"/>
    </edge>
    <edge id=":cluster_1423350612_1491969408_729763332_6" function="internal">
        <lane id=":cluster_1423350612_1491969408_729763332_6_0" index="0" speed="22.22" length="21.74" shape="343.30,472.79 343.69,478.89 347.39,483.35 351.73,486.94 354.04,490.45"/>
    </edge>
    <edge id=":cluster_1423350612_1491969408_729763332_7" function="internal">
        <lane id=":cluster_1423350612_1491969408_729763332_7_0" index="0" speed="22.22" length="6.24" shape="340.66,470.14 338.62,474.91 337.91,475.69"/>
    </edge>
    <edge id=":cluster_1423350612_1491969408_729763332_12" function="internal">
        <lane id=":cluster_1423350612_1491969408_729763332_12_0" index="0" speed="22.22" length="11.36" shape="337.91,475.69 335.80,478.01 332.22,479.44 327.86,479.21"/>
    </edge>
    <edge id=":cluster_1423350612_1491969408_729763332_8" function="internal">
        <lane id=":cluster_1423350612_1491969408_729763332_8_0" index="0" speed="22.22" length="7.41" shape="340.66,470.14 339.08,473.91 337.32,475.15 336.35,474.51"/>
    </edge>
    <edge id=":cluster_1423350612_1491969408_729763332_13" function="internal">
        <lane id=":cluster_1423350612_1491969408_729763332_13_0" index="0" speed="22.22" length="5.53" shape="336.35,474.51 335.37,473.87 333.25,470.06"/>
    </edge>
    <edge id=":cluster_1423350612_1491969408_729763332_9" function="internal">
        <lane id=":cluster_1423350612_1491969408_729763332_9_0" index="0" speed="22.22" length="9.17" shape="353.76,481.29 354.04,490.45"/>
    </edge>
    <edge id=":cluster_1423350612_1491969408_729763332_10" function="internal">
        <lane id=":cluster_1423350612_1491969408_729763332_10_0" index="0" speed="22.22" length="10.48" shape="353.76,481.29 352.17,481.09 347.45,480.14 343.48,479.28"/>
    </edge>
    <edge id=":cluster_1423350612_1491969408_729763332_14" function="internal">
        <lane id=":cluster_1423350612_1491969408_729763332_14_0" index="0" speed="22.22" length="15.26" shape="343.48,479.28 339.58,478.44 328.58,475.99"/>
    </edge>
    <edge id=":cluster_1423350612_1491969408_729763332_11" function="internal">
        <lane id=":cluster_1423350612_1491969408_729763332_11_0" index="0" speed="22.22" length="1.76" shape="353.76,481.29 353.29,482.98"/>
    </edge>
    <edge id=":cluster_1423350612_1491969408_729763332_15" function="internal">
        <lane id=":cluster_1423350612_1491969408_729763332_15_0" index="0" speed="22.22" length="34.05" shape="353.29,482.98 351.71,488.61 348.03,488.79 342.73,481.80 335.80,467.66"/>
    </edge>
    <edge id=":cluster_1423350636_1423419199_1423419201_1423419210_58584500_0" function="internal">
        <lane id=":cluster_1423350636_1423419199_1423419201_1423419210_58584500_0_0" index="0" speed="22.22" length="23.46" shape="318.60,444.76 340.70,436.91"/>
    </edge>
    <edge id=":cluster_1423350636_1423419199_1423419201_1423419210_58584500_1" function="internal">
        <lane id=":cluster_1423350636_1423419199_1423419201_1423419210_58584500_1_0" index="0" speed="18.06" length="7.58" shape="318.60,444.76 317.38,442.41 316.11,440.83 314.79,440.03 313.43,440.00"/>
    </edge>
    <edge id=":cluster_1423350636_1423419199_1423419201_1423419210_58584500_2" function="internal">
        <lane id=":cluster_1423350636_1423419199_1423419201_1423419210_58584500_2_0" index="0" speed="22.22" length="15.54" shape="321.71,443.65 319.73,439.07 318.38,435.48 317.67,432.28 317.57,428.85"/>
    </edge>
    <edge id=":cluster_1423350636_1423419199_1423419201_1423419210_58584500_3" function="internal">
        <lane id=":cluster_1423350636_1423419199_1423419201_1423419210_58584500_3_0" index="0" speed="18.06" length="5.75" shape="324.83,442.55 323.67,438.60 323.87,436.98"/>
    </edge>
    <edge id=":cluster_1423350636_1423419199_1423419201_1423419210_58584500_16" function="internal">
        <lane id=":cluster_1423350636_1423419199_1423419201_1423419210_58584500_16_0" index="0" speed="18.06" length="7.90" shape="323.87,436.98 324.04,435.57 325.93,433.44 329.35,432.23"/>
    </edge>
    <edge id=":cluster_1423350636_1423419199_1423419201_1423419210_58584500_4" function="internal">
        <lane id=":cluster_1423350636_1423419199_1423419201_1423419210_58584500_4_0" index="0" speed="18.06" length="11.49" shape="329.95,435.47 334.23,434.91 337.45,434.96 339.61,435.62 340.70,436.91"/>
    </edge>
    <edge id=":cluster_1423350636_1423419199_1423419201_1423419210_58584500_5" function="internal">
        <lane id=":cluster_1423350636_1423419199_1423419201_1423419210_58584500_5_0" index="0" speed="18.06" length="6.05" shape="329.95,435.47 331.11,435.55 332.19,436.20 333.19,437.43 334.11,439.25"/>
    </edge>
    <edge id=":cluster_1423350636_1423419199_1423419201_1423419210_58584500_6" function="internal">
        <lane id=":cluster_1423350636_1423419199_1423419201_1423419210_58584500_6_0" index="0" speed="13.89" length="17.13" shape="329.95,435.47 325.97,436.38 321.66,437.60 317.36,438.89 313.43,440.00"/>
    </edge>
    <edge id=":cluster_1423350636_1423419199_1423419201_1423419210_58584500_7" function="internal">