<?xml version="1.0" encoding="UTF-8"?>

<!-- generated on Mon Sep  2 15:25:59 2013 by SUMO netconvert Version 0.16.0
<?xml version="1.0" encoding="UTF-8"?>

<configuration xmlns:xsi="http://www.w3.org/2001/XMLSchema-instance" xsi:noNamespaceSchemaLocation="http://sumo.sf.net/xsd/netconvertConfiguration.xsd">

    <input>
        <osm-files value="Depart.osm"/>
    </input>

    <output>
        <output-file value="Depart.net.xml"/>
    </output>

    <projection>
        <proj.utm value="true"/>
    </projection>

    <edge_removal>
        <remove-edges.by-vclass value="hov,taxi,bus,delivery,transport,lightrail,cityrail,pedestrian,rail_slow,rail_fast,motorcycle,bicycle"/>
    </edge_removal>

    <processing>
        <no-turnarounds value="true"/>
        <junctions.join value="true"/>
    </processing>

</configuration>
-->

<net version="0.13" xmlns:xsi="http://www.w3.org/2001/XMLSchema-instance" xsi:noNamespaceSchemaLocation="http://sumo.sf.net/xsd/net_file.xsd">

    <location netOffset="-644689.69,-5068725.44" convBoundary="0.00,0.00,1038.50,1583.92" origBoundary="4.860698,45.756853,4.874035,45.771041" projParameter="+proj=utm +zone=31 +ellps=WGS84 +datum=WGS84 +units=m +no_defs"/>

    <edge id=":1679897960_0" function="internal">
        <lane id=":1679897960_0_0" index="0" speed="27.78" length="0.59" shape="1009.43,778.08 1010.01,778.13"/>
    </edge>
    <edge id=":1679897960_1" function="internal">
        <lane id=":1679897960_1_0" index="0" speed="27.78" length="0.19" shape="1009.35,781.38 1009.54,781.39"/>
    </edge>
    <edge id=":208769279_0" function="internal">
        <lane id=":208769279_0_0" index="0" speed="13.89" length="7.05" shape="722.67,513.89 723.07,516.24 723.73,518.00 724.65,519.17 725.82,519.75"/>
    </edge>
    <edge id=":208769279_1" function="internal">
        <lane id=":208769279_1_0" index="0" speed="13.89" length="8.71" shape="722.67,513.89 722.71,516.90 722.10,518.95 720.85,520.02 718.94,520.13"/>
    </edge>
    <edge id=":208769279_2" function="internal">
        <lane id=":208769279_2_0" index="0" speed="13.89" length="6.95" shape="719.49,516.88 725.82,519.75"/>
    </edge>
    <edge id=":208785809_0" function="internal">
        <lane id=":208785809_0_0" index="0" speed="13.89" length="0.10" shape="828.09,543.83 828.09,543.83"/>
    </edge>
    <edge id=":208785809_1" function="internal">
        <lane id=":208785809_1_0" index="0" speed="13.89" length="0.10" shape="828.77,540.60 828.72,540.59"/>
    </edge>
    <edge id=":208785927_0" function="internal">
        <lane id=":208785927_0_0" index="0" speed="13.89" length="0.10" shape="922.13,479.34 922.13,479.34"/>
    </edge>
    <edge id=":208818647_0" function="internal">
        <lane id=":208818647_0_0" index="0" speed="13.89" length="0.10" shape="713.31,722.27 713.31,722.27"/>
    </edge>
    <edge id=":208822503_0" function="internal">
        <lane id=":208822503_0_0" index="0" speed="13.89" length="5.35" shape="666.73,613.91 666.51,612.35 665.96,611.19 665.06,610.40 663.82,610.01"/>
    </edge>
    <edge id=":208822503_1" function="internal">
        <lane id=":208822503_1_0" index="0" speed="13.89" length="6.33" shape="670.06,611.08 663.82,610.01"/>
    </edge>
    <edge id=":25468035_0" function="internal">
        <lane id=":25468035_0_0" index="0" speed="27.78" length="0.10" shape="97.73,748.28 97.72,748.28"/>
    </edge>
    <edge id=":25468035_1" function="internal">
        <lane id=":25468035_1_0" index="0" speed="27.78" length="0.10" shape="97.62,751.58 97.63,751.58"/>
    </edge>
    <edge id=":25468044_0" function="internal">
        <lane id=":25468044_0_0" index="0" speed="20.83" length="5.19" shape="490.76,762.43 492.21,762.26 493.18,761.67 493.69,760.65 493.72,759.19"/>
    </edge>
    <edge id=":25468044_1" function="internal">
        <lane id=":25468044_1_0" index="0" speed="27.78" length="6.82" shape="490.76,762.43 497.58,762.63"/>
    </edge>
    <edge id=":25468044_2" function="internal">
        <lane id=":25468044_2_0" index="0" speed="27.78" length="6.82" shape="490.66,765.73 497.48,765.93"/>
    </edge>
    <edge id=":25468044_3" function="internal">
        <lane id=":25468044_3_0" index="0" speed="20.83" length="5.56" shape="490.66,765.73 492.27,765.97 493.42,766.60 494.11,767.61 494.34,768.99"/>
    </edge>
    <edge id=":25468045_0" function="internal">
        <lane id=":25468045_0_0" index="0" speed="27.78" length="6.21" shape="558.38,764.48 564.58,764.67"/>
    </edge>
    <edge id=":25468045_1" function="internal">
        <lane id=":25468045_1_0" index="0" speed="27.78" length="6.20" shape="558.28,767.78 564.48,767.97"/>
    </edge>
    <edge id=":25468045_2" function="internal">
        <lane id=":25468045_2_0" index="0" speed="25.00" length="5.03" shape="561.32,771.01 561.52,769.64 562.12,768.68 563.10,768.12 564.48,767.97"/>
    </edge>
    <edge id=":25468046_0" function="internal">
        <lane id=":25468046_0_0" index="0" speed="27.78" length="0.10" shape="169.40,751.17 169.40,751.17"/>
    </edge>
    <edge id=":25468046_1" function="internal">
        <lane id=":25468046_1_0" index="0" speed="27.78" length="0.10" shape="169.27,754.46 169.27,754.46"/>
    </edge>
    <edge id=":25468066_0" function="internal">
        <lane id=":25468066_0_0" index="0" speed="13.89" length="5.94" shape="483.84,677.43 483.43,675.80 482.66,674.63 481.52,673.93 480.02,673.68"/>
    </edge>
    <edge id=":25468066_1" function="internal">
        <lane id=":25468066_1_0" index="0" speed="13.89" length="7.11" shape="483.84,677.43 482.90,670.38"/>
    </edge>
    <edge id=":25468066_2" function="internal">
        <lane id=":25468066_2_0" index="0" speed="13.89" length="7.08" shape="487.05,674.50 480.02,673.68"/>
    </edge>
    <edge id=":25468066_3" function="internal">
        <lane id=":25468066_3_0" index="0" speed="13.89" length="6.26" shape="487.05,674.50 485.42,673.95 484.18,673.08 483.35,671.89 482.90,670.38"/>
    </edge>
    <edge id=":25614440_0" function="internal">
        <lane id=":25614440_0_0" index="0" speed="27.78" length="6.09" shape="714.41,770.72 720.50,770.94"/>
    </edge>
    <edge id=":25614440_1" function="internal">
        <lane id=":25614440_1_0" index="0" speed="27.78" length="6.16" shape="714.26,774.02 720.42,774.24"/>
    </edge>
    <edge id=":25614440_2" function="internal">
        <lane id=":25614440_2_0" index="0" speed="20.83" length="5.00" shape="714.26,774.02 715.59,774.28 716.53,774.90 717.08,775.90 717.25,777.26"/>
    </edge>
    <edge id=":26086116_0" function="internal">
        <lane id=":26086116_0_0" index="0" speed="13.89" length="7.37" shape="622.61,708.26 622.18,706.18 621.34,704.59 620.09,703.47 618.44,702.83"/>
    </edge>
    <edge id=":26086116_1" function="internal">
        <lane id=":26086116_1_0" index="0" speed="13.89" length="8.43" shape="622.61,708.26 621.63,699.88"/>
    </edge>
    <edge id=":26086116_2" function="internal">
        <lane id=":26086116_2_0" index="0" speed="13.89" length="5.15" shape="622.61,708.26 622.85,706.34 624.01,705.15 625.53,704.82"/>
    </edge>
    <edge id=":26086116_6" function="internal">
        <lane id=":26086116_6_0" index="0" speed="13.89" length="3.61" shape="625.53,704.82 626.10,704.70 629.11,704.99"/>
    </edge>
    <edge id=":26086116_3" function="internal">
        <lane id=":26086116_3_0" index="0" speed="13.89" length="7.47" shape="624.90,699.44 625.41,701.62 626.28,703.27 627.52,704.39 629.11,704.99"/>
    </edge>
    <edge id=":26086116_4" function="internal">
        <lane id=":26086116_4_0" index="0" speed="13.89" length="8.55" shape="624.90,699.44 625.90,707.93"/>
    </edge>
    <edge id=":26086116_5" function="internal">
        <lane id=":26086116_5_0" index="0" speed="13.89" length="5.39" shape="624.90,699.44 624.75,701.50 623.62,702.75 622.01,703.09"/>
    </edge>
    <edge id=":26086116_7" function="internal">
        <lane id=":26086116_7_0" index="0" speed="13.89" length="3.60" shape="622.01,703.09 621.52,703.19 618.44,702.83"/>
    </edge>
    <edge id=":26086117_0" function="internal">
        <lane id=":26086117_0_0" index="0" speed="13.89" length="7.03" shape="595.06,503.93 594.55,501.97 593.63,500.56 592.32,499.69 590.59,499.38"/>
    </edge>
    <edge id=":26086117_1" function="internal">
        <lane id=":26086117_1_0" index="0" speed="13.89" length="11.20" shape="595.06,503.93 594.63,500.80 594.30,498.38 593.99,495.95 593.59,492.82"/>
    </edge>
    <edge id=":26086117_2" function="internal">
        <lane id=":26086117_2_0" index="0" speed="13.89" length="7.44" shape="595.06,503.93 595.07,500.47 596.24,498.20 597.53,497.59"/>
    </edge>
    <edge id=":26086117_12" function="internal">
        <lane id=":26086117_12_0" index="0" speed="13.89" length="4.58" shape="597.53,497.59 598.54,497.10 602.00,497.19"/>
    </edge>
    <edge id=":26086117_3" function="internal">
        <lane id=":26086117_3_0" index="0" speed="13.89" length="5.41" shape="601.45,500.44 599.90,500.41 598.86,500.90 598.33,501.92 598.33,503.48"/>
    </edge>
    <edge id=":26086117_4" function="internal">
        <lane id=":26086117_4_0" index="0" speed="13.89" length="10.93" shape="601.45,500.44 598.38,499.94 596.05,499.64 593.70,499.47 590.59,499.38"/>
    </edge>
    <edge id=":26086117_5" function="internal">
        <lane id=":26086117_5_0" index="0" speed="13.89" length="11.83" shape="601.45,500.44 598.32,499.52 595.96,497.95 594.39,495.71 593.59,492.82"/>
    </edge>
    <edge id=":26086117_6" function="internal">
        <lane id=":26086117_6_0" index="0" speed="13.89" length="7.58" shape="596.86,492.41 597.37,494.21 598.40,495.61 599.94,496.60 602.00,497.19"/>
    </edge>
    <edge id=":26086117_7" function="internal">
        <lane id=":26086117_7_0" index="0" speed="13.89" length="11.16" shape="596.86,492.41 597.26,495.53 597.58,497.95 597.90,500.36 598.33,503.48"/>
    </edge>
    <edge id=":26086117_8" function="internal">
        <lane id=":26086117_8_0" index="0" speed="13.89" length="7.21" shape="596.86,492.41 596.81,495.51 595.75,497.71 594.33,498.59"/>
    </edge>
    <edge id=":26086117_13" function="internal">
        <lane id=":26086117_13_0" index="0" speed="13.89" length="3.88" shape="594.33,498.59 593.67,499.00 590.59,499.38"/>
    </edge>
    <edge id=":26086117_9" function="internal">
        <lane id=":26086117_9_0" index="0" speed="13.89" length="5.18" shape="590.66,496.08 592.10,495.90 593.07,495.30 593.56,494.27 593.59,492.82"/>
    </edge>
    <edge id=":26086117_10" function="internal">
        <lane id=":26086117_10_0" index="0" speed="13.89" length="11.41" shape="590.66,496.08 593.85,496.18 596.35,496.36 598.85,496.68 602.00,497.19"/>
    </edge>
    <edge id=":26086117_11" function="internal">
        <lane id=":26086117_11_0" index="0" speed="13.89" length="11.77" shape="590.66,496.08 593.64,496.59 595.91,498.00 597.47,500.29 598.33,503.48"/>
    </edge>
    <edge id=":26086118_0" function="internal">
        <lane id=":26086118_0_0" index="0" speed="13.89" length="6.00" shape="458.19,500.02 457.74,498.55 456.89,497.50 455.62,496.87 453.94,496.66"/>
    </edge>
    <edge id=":26086118_1" function="internal">
        <lane id=":26086118_1_0" index="0" speed="13.89" length="10.04" shape="458.19,500.02 457.77,497.08 457.49,495.06 457.22,493.03 456.86,490.08"/>
    </edge>
    <edge id=":26086118_2" function="internal">
        <lane id=":26086118_2_0" index="0" speed="13.89" length="8.34" shape="458.19,500.02 458.02,497.11 458.45,495.05 459.50,493.82 461.16,493.44"/>
    </edge>
    <edge id=":26086118_3" function="internal">
        <lane id=":26086118_3_0" index="0" speed="13.89" length="7.15" shape="461.09,496.74 453.94,496.66"/>
    </edge>
    <edge id=":26086118_4" function="internal">
        <lane id=":26086118_4_0" index="0" speed="13.89" length="5.15" shape="461.09,496.74 459.55,496.30 458.32,495.04 457.62,493.40"/>
    </edge>
    <edge id=":26086118_7" function="internal">
        <lane id=":26086118_7_0" index="0" speed="13.89" length="3.42" shape="457.62,493.40 457.43,492.97 456.86,490.08"/>
    </edge>
    <edge id=":26086118_5" function="internal">
        <lane id=":26086118_5_0" index="0" speed="13.89" length="5.16" shape="453.95,493.36 455.37,493.16 456.33,492.54 456.83,491.52 456.86,490.08"/>
    </edge>
    <edge id=":26086118_6" function="internal">
        <lane id=":26086118_6_0" index="0" speed="13.89" length="7.21" shape="453.95,493.36 461.16,493.44"/>
    </edge>
    <edge id=":26086121_0" function="internal">
        <lane id=":26086121_0_0" index="0" speed="13.89" length="6.16" shape="448.10,418.82 447.28,412.72"/>
    </edge>
    <edge id=":26086121_1" function="internal">
        <lane id=":26086121_1_0" index="0" speed="18.06" length="5.00" shape="448.10,418.82 448.13,417.47 448.59,416.43 449.48,415.72 450.80,415.33"/>
    </edge>
    <edge id=":26086122_0" function="internal">
        <lane id=":26086122_0_0" index="0" speed="13.89" length="6.19" shape="581.74,399.13 580.98,392.98"/>
    </edge>
    <edge id=":26086122_1" function="internal">
        <lane id=":26086122_1_0" index="0" speed="13.89" length="6.17" shape="584.25,392.59 585.01,398.72"/>
    </edge>
    <edge id=":26086122_2" function="internal">
        <lane id=":26086122_2_0" index="0" speed="18.06" length="5.03" shape="578.24,396.48 579.58,396.09 580.48,395.38 580.94,394.34 580.98,392.98"/>
    </edge>
    <edge id=":26086122_3" function="internal">
        <lane id=":26086122_3_0" index="0" speed="18.06" length="7.91" shape="578.24,396.48 581.05,396.27 583.12,396.57 584.44,397.38 585.01,398.72"/>
    </edge>
    <edge id=":26086123_0" function="internal">
        <lane id=":26086123_0_0" index="0" speed="13.89" length="6.32" shape="609.09,606.40 608.24,600.14"/>
    </edge>
    <edge id=":26086123_1" function="internal">
        <lane id=":26086123_1_0" index="0" speed="13.89" length="5.37" shape="615.46,602.90 613.92,602.89 612.89,603.40 612.37,604.42 612.36,605.96"/>
    </edge>
    <edge id=":26086123_2" function="internal">
        <lane id=":26086123_2_0" index="0" speed="13.89" length="7.99" shape="615.46,602.90 612.39,602.34 610.17,601.69 608.78,600.96 608.24,600.14"/>
    </edge>
    <edge id=":26086123_3" function="internal">
        <lane id=":26086123_3_0" index="0" speed="13.89" length="6.33" shape="611.51,599.69 612.36,605.96"/>
    </edge>
    <edge id=":26086128_0" function="internal">
        <lane id=":26086128_0_0" index="0" speed="13.89" length="0.10" shape="565.86,282.73 565.86,282.73"/>
    </edge>
    <edge id=":26086128_1" function="internal">
        <lane id=":26086128_1_0" index="0" speed="13.89" length="0.10" shape="569.13,282.32 569.12,282.26"/>
    </edge>
    <edge id=":26416315_0" function="internal">
        <lane id=":26416315_0_0" index="0" speed="20.83" length="6.42" shape="631.35,763.01 631.75,764.66 632.60,765.87 633.88,766.63 635.61,766.95"/>
    </edge>
    <edge id=":26416315_1" function="internal">
        <lane id=":26416315_1_0" index="0" speed="13.89" length="11.13" shape="631.35,763.01 631.51,766.18 631.56,768.64 631.96,770.99 633.17,773.85"/>
    </edge>
    <edge id=":26416315_2" function="internal">
        <lane id=":26416315_2_0" index="0" speed="20.83" length="5.16" shape="625.07,766.53 626.50,766.37 627.48,765.78 628.00,764.77 628.07,763.33"/>
    </edge>
    <edge id=":26416315_3" function="internal">
        <lane id=":26416315_3_0" index="0" speed="27.78" length="10.54" shape="625.07,766.53 628.20,766.63 630.34,766.71 632.48,766.80 635.61,766.95"/>
    </edge>
    <edge id=":26416315_4" function="internal">
        <lane id=":26416315_4_0" index="0" speed="27.78" length="10.48" shape="624.97,769.83 628.08,769.93 630.21,770.00 632.34,770.10 635.45,770.24"/>
    </edge>
    <edge id=":26416315_5" function="internal">
        <lane id=":26416315_5_0" index="0" speed="20.83" length="9.56" shape="624.97,769.83 627.79,770.15 630.10,770.93 631.89,772.16 633.17,773.85"/>
    </edge>
    <edge id=":376978465_0" function="internal">
        <lane id=":376978465_0_0" index="0" speed="27.78" length="0.10" shape="88.76,747.98 88.77,747.98"/>
    </edge>
    <edge id=":376978465_1" function="internal">
        <lane id=":376978465_1_0" index="0" speed="27.78" length="0.10" shape="88.68,751.27 88.66,751.27"/>
    </edge>
    <edge id=":48833743_0" function="internal">
        <lane id=":48833743_0_0" index="0" speed="18.06" length="5.07" shape="438.97,356.72 438.58,355.39 437.86,354.50 436.80,354.03 435.42,354.00"/>
    </edge>
    <edge id=":48833743_1" function="internal">
        <lane id=":48833743_1_0" index="0" speed="13.89" length="6.23" shape="438.97,356.72 438.12,350.54"/>
    </edge>
    <edge id=":48833743_2" function="internal">
        <lane id=":48833743_2_0" index="0" speed="22.22" length="6.23" shape="441.61,353.22 435.42,354.00"/>
    </edge>
    <edge id=":48833743_3" function="internal">
        <lane id=":48833743_3_0" index="0" speed="18.06" length="5.02" shape="441.61,353.22 440.23,353.21 439.19,352.76 438.49,351.87 438.12,350.54"/>
    </edge>
    <edge id=":48833747_0" function="internal">
        <lane id=":48833747_0_0" index="0" speed="18.06" length="5.02" shape="574.39,338.53 574.03,337.20 573.33,336.31 572.29,335.86 570.91,335.85"/>
    </edge>
    <edge id=":48833747_1" function="internal">
        <lane id=":48833747_1_0" index="0" speed="13.89" length="6.25" shape="574.39,338.53 573.53,332.34"/>
    </edge>
    <edge id=":48833747_2" function="internal">
        <lane id=":48833747_2_0" index="0" speed="13.89" length="6.36" shape="576.79,331.83 577.66,338.14"/>
    </edge>
    <edge id=":48833747_3" function="internal">
        <lane id=":48833747_3_0" index="0" speed="18.06" length="4.80" shape="576.79,331.83 576.61,333.27 575.57,334.42 573.92,335.16"/>
    </edge>
    <edge id=":48833747_4" function="internal">
        <lane id=":48833747_4_0" index="0" speed="18.06" length="3.10" shape="573.92,335.16 573.66,335.28 570.91,335.85"/>
    </edge>
    <edge id=":54704532_0" function="internal">
        <lane id=":54704532_0_0" index="0" speed="27.78" length="6.21" shape="856.85,774.31 863.06,774.46"/>
    </edge>
    <edge id=":54704532_1" function="internal">
        <lane id=":54704532_1_0" index="0" speed="27.78" length="6.21" shape="856.77,777.61 862.97,777.76"/>
    </edge>
    <edge id=":54704532_2" function="internal">
        <lane id=":54704532_2_0" index="0" speed="20.83" length="5.11" shape="859.67,780.90 860.00,779.50 860.66,778.51 861.65,777.93 862.97,777.76"/>
    </edge>
    <edge id=":54704581_0" function="internal">
        <lane id=":54704581_0_0" index="0" speed="27.78" length="6.20" shape="782.79,772.48 788.99,772.63"/>
    </edge>
    <edge id=":54704581_1" function="internal">
        <lane id=":54704581_1_0" index="0" speed="27.78" length="6.20" shape="782.71,775.78 788.90,775.93"/>
    </edge>
    <edge id=":54704581_2" function="internal">
        <lane id=":54704581_2_0" index="0" speed="20.83" length="5.01" shape="782.71,775.78 784.06,776.00 785.01,776.61 785.56,777.60 785.71,778.97"/>
    </edge>
    <edge id=":54803114_0" function="internal">
        <lane id=":54803114_0_0" index="0" speed="20.83" length="5.10" shape="897.81,775.33 899.13,775.16 900.13,774.58 900.78,773.59 901.11,772.20"/>
    </edge>
    <edge id=":54803114_1" function="internal">
        <lane id=":54803114_1_0" index="0" speed="27.78" length="6.21" shape="897.81,775.33 904.01,775.48"/>
    </edge>
    <edge id=":54803114_2" function="internal">
        <lane id=":54803114_2_0" index="0" speed="27.78" length="6.21" shape="897.72,778.62 903.93,778.78"/>
    </edge>
    <edge id=":54803119_0" function="internal">
        <lane id=":54803119_0_0" index="0" speed="13.89" length="6.95" shape="919.33,559.23 912.39,559.64"/>
    </edge>
    <edge id=":54803119_1" function="internal">
        <lane id=":54803119_1_0" index="0" speed="13.89" length="6.86" shape="919.33,559.23 917.94,558.67 917.00,557.56 916.51,555.92 916.47,553.72"/>
    </edge>
    <edge id=":54803119_2" function="internal">
        <lane id=":54803119_2_0" index="0" speed="13.89" length="5.14" shape="913.00,556.39 914.42,556.45 915.48,556.03 916.16,555.12 916.47,553.72"/>
    </edge>
    <edge id=":54803119_3" function="internal">
        <lane id=":54803119_3_0" index="0" speed="13.89" length="5.49" shape="915.78,563.23 915.64,561.91 915.03,560.87 913.95,560.11 912.39,559.64"/>
    </edge>
    <edge id=":54803119_4" function="internal">
        <lane id=":54803119_4_0" index="0" speed="13.89" length="9.53" shape="915.78,563.23 916.47,553.72"/>
    </edge>
    <edge id=":54803121_0" function="internal">
        <lane id=":54803121_0_0" index="0" speed="18.06" length="5.18" shape="909.01,659.98 908.89,658.67 908.34,657.64 907.37,656.90 905.96,656.45"/>
    </edge>
    <edge id=":54803121_1" function="internal">
        <lane id=":54803121_1_0" index="0" speed="13.89" length="6.22" shape="909.01,659.98 909.43,653.78"/>
    </edge>
    <edge id=":54803122_0" function="internal">
        <lane id=":54803122_0_0" index="0" speed="13.89" length="5.21" shape="798.03,537.26 796.57,537.16 795.51,537.57 794.83,538.49 794.55,539.92"/>
    </edge>
    <edge id=":54803122_1" function="internal">
        <lane id=":54803122_1_0" index="0" speed="13.89" length="5.70" shape="795.14,530.33 795.29,531.64 795.94,532.70 797.09,533.50 798.74,534.04"/>
    </edge>
    <edge id=":54803122_2" function="internal">
        <lane id=":54803122_2_0" index="0" speed="13.89" length="9.61" shape="795.14,530.33 794.55,539.92"/>
    </edge>
    <edge id=":54803122_3" function="internal">
        <lane id=":54803122_3_0" index="0" speed="13.89" length="7.19" shape="791.54,534.15 798.74,534.04"/>
    </edge>
    <edge id=":54803122_4" function="internal">
        <lane id=":54803122_4_0" index="0" speed="13.89" length="7.12" shape="791.54,534.15 792.96,534.78 793.93,535.95 794.46,537.67 794.55,539.92"/>
    </edge>
    <edge id=":54803125_0" function="internal">
        <lane id=":54803125_0_0" index="0" speed="18.06" length="5.19" shape="794.58,635.11 793.13,635.04 792.07,635.48 791.41,636.41 791.15,637.84"/>
    </edge>
    <edge id=":54803125_1" function="internal">
        <lane id=":54803125_1_0" index="0" speed="18.06" length="9.58" shape="794.58,635.11 785.18,633.30"/>
    </edge>
    <edge id=":54803125_2" function="internal">
        <lane id=":54803125_2_0" index="0" speed="13.89" length="7.14" shape="789.81,630.83 791.15,637.84"/>
    </edge>
    <edge id=":54803125_3" function="internal">
        <lane id=":54803125_3_0" index="0" speed="13.89" length="6.14" shape="789.81,630.83 789.45,632.23 788.56,633.11 787.14,633.47 785.18,633.30"/>
    </edge>
    <edge id=":54803125_4" function="internal">
        <lane id=":54803125_4_0" index="0" speed="13.89" length="5.69" shape="787.85,637.72 787.74,635.99 787.25,634.68 786.40,633.78 785.18,633.30"/>
    </edge>
    <edge id=":54803136_0" function="internal">
        <lane id=":54803136_0_0" index="0" speed="13.89" length="5.08" shape="899.31,757.63 900.71,757.61 901.74,757.14 902.40,756.21 902.69,754.84"/>
    </edge>
    <edge id=":54803136_1" function="internal">
        <lane id=":54803136_1_0" index="0" speed="13.89" length="6.25" shape="902.19,761.07 902.69,754.84"/>
    </edge>
    <edge id=":54803427_0" function="internal">
        <lane id=":54803427_0_0" index="0" speed="13.89" length="5.87" shape="787.55,739.08 787.67,740.90 788.18,742.26 789.07,743.15 790.34,743.57"/>
    </edge>
    <edge id=":54803427_1" function="internal">
        <lane id=":54803427_1_0" index="0" speed="13.89" length="5.32" shape="780.72,741.54 782.22,741.74 783.31,741.38 783.99,740.46 784.26,738.97"/>
    </edge>
    <edge id=":54803427_2" function="internal">
        <lane id=":54803427_2_0" index="0" speed="13.89" length="9.83" shape="780.72,741.54 790.34,743.57"/>
    </edge>
    <edge id=":54803872_0" function="internal">
        <lane id=":54803872_0_0" index="0" speed="13.89" length="5.27" shape="665.65,711.86 667.14,711.92 668.20,711.47 668.81,710.51 668.99,709.03"/>
    </edge>
    <edge id=":54803872_1" function="internal">
        <lane id=":54803872_1_0" index="0" speed="13.89" length="6.23" shape="665.65,711.86 671.76,713.10"/>
    </edge>

    <edge id="-113482868#0" from="26086118" to="26086115" priority="4" type="highway.residential" shape="457.47,495.02 377.68,494.80 314.16,495.10 253.04,495.53">
        <lane id="-113482868#0_0" index="0" speed="13.89" length="200.89" shape="453.94,496.66 377.68,496.45 314.17,496.75 253.05,497.18"/>
    </edge>
    <edge id="-113482868#1" from="26086117" to="26086118" priority="4" type="highway.residential">
        <lane id="-113482868#1_0" index="0" speed="13.89" length="129.52" shape="590.59,499.38 461.09,496.74"/>
    </edge>
    <edge id="-180814145#0" from="26086128" to="26079654" priority="4" type="highway.residential" shape="567.49,282.51 563.97,253.00 551.69,140.46">
        <lane id="-180814145#0_0" index="0" speed="13.89" length="142.98" shape="565.86,282.73 562.33,253.20 550.05,140.63"/>
    </edge>
    <edge id="-180814145#1" from="48833747" to="26086128" priority="4" type="highway.residential">
        <lane id="-180814145#1_0" index="0" speed="13.89" length="50.19" shape="573.53,332.34 565.86,282.73"/>
    </edge>
    <edge id="-180814145#2" from="26086122" to="48833747" priority="4" type="highway.residential">
        <lane id="-180814145#2_0" index="0" speed="13.89" length="54.85" shape="580.98,392.98 574.39,338.53"/>
    </edge>
    <edge id="-180814145#3" from="26086117" to="26086122" priority="4" type="highway.residential">
        <lane id="-180814145#3_0" index="0" speed="13.89" length="94.44" shape="593.59,492.82 581.74,399.13"/>
    </edge>
    <edge id="-180814145#4" from="26086123" to="26086117" priority="4" type="highway.residential">
        <lane id="-180814145#4_0" index="0" speed="13.89" length="97.11" shape="608.24,600.14 595.06,503.93"/>
    </edge>
    <edge id="-180814145#5" from="26086116" to="26086123" priority="4" type="highway.residential" shape="623.85,704.00 622.81,696.23 610.18,602.12">
        <lane id="-180814145#5_0" index="0" speed="13.89" length="94.32" shape="621.63,699.88 621.17,696.45 609.09,606.40"/>
    </edge>
    <edge id="-180814145#6" from="26416315" to="26086116" priority="4" type="highway.residential" shape="630.22,768.34 629.42,760.25 624.47,710.20 623.85,704.00">
        <lane id="-180814145#6_0" index="0" speed="13.89" length="55.34" shape="628.07,763.33 627.78,760.41 622.82,710.36 622.61,708.26"/>
    </edge>
    <edge id="-19898322" from="54803427" to="54803125" priority="4" type="highway.residential">
        <lane id="-19898322_0" index="0" speed="13.89" length="101.31" shape="784.26,738.97 787.85,637.72"/>
    </edge>
    <edge id="-19899041" from="54803119" to="208785809" priority="4" type="highway.residential">
        <lane id="-19899041_0" index="0" speed="13.89" length="85.77" shape="912.39,559.64 828.09,543.83"/>
    </edge>
    <edge id="-33300388" from="208785809" to="54803122" priority="4" type="highway.residential">
        <lane id="-33300388_0" index="0" speed="13.89" length="30.77" shape="828.09,543.83 798.03,537.26"/>
    </edge>
    <edge id="-7395441" from="208769279" to="26086117" priority="4" type="highway.residential">
        <lane id="-7395441_0" index="0" speed="13.89" length="119.13" shape="718.94,520.13 601.45,500.44"/>
    </edge>
    <edge id="113482868#0" from="26086115" to="26086118" priority="4" type="highway.residential" shape="253.04,495.53 314.16,495.10 377.68,494.80 457.47,495.02">
        <lane id="113482868#0_0" index="0" speed="13.89" length="200.92" shape="253.03,493.88 314.15,493.45 377.67,493.15 453.95,493.36"/>
    </edge>
    <edge id="113482868#1" from="26086118" to="26086117" priority="4" type="highway.residential">
        <lane id="113482868#1_0" index="0" speed="13.89" length="129.52" shape="461.16,493.44 590.66,496.08"/>
    </edge>
    <edge id="180814145#0" from="26079654" to="26086128" priority="4" type="highway.residential" shape="551.69,140.46 563.97,253.00 567.49,282.51">
        <lane id="180814145#0_0" index="0" speed="13.89" length="142.92" shape="553.33,140.28 565.61,252.83 569.13,282.32"/>
    </edge>
    <edge id="180814145#1" from="26086128" to="48833747" priority="4" type="highway.residential">
        <lane id="180814145#1_0" index="0" speed="13.89" length="50.16" shape="569.12,282.26 576.79,331.83"/>
    </edge>
    <edge id="180814145#2" from="48833747" to="26086122" priority="4" type="highway.residential">
        <lane id="180814145#2_0" index="0" speed="13.89" length="54.85" shape="577.66,338.14 584.25,392.59"/>
    </edge>
    <edge id="180814145#3" from="26086122" to="26086117" priority="4" type="highway.residential">
        <lane id="180814145#3_0" index="0" speed="13.89" length="94.44" shape="585.01,398.72 596.86,492.41"/>
    </edge>
    <edge id="180814145#4" from="26086117" to="26086123" priority="4" type="highway.residential">
        <lane id="180814145#4_0" index="0" speed="13.89" length="97.11" shape="598.33,503.48 611.51,599.69"/>
    </edge>
    <edge id="180814145#5" from="26086123" to="26086116" priority="4" type="highway.residential" shape="610.18,602.12 622.81,696.23 623.85,704.00">
        <lane id="180814145#5_0" index="0" speed="13.89" length="94.32" shape="612.36,605.96 624.44,696.02 624.90,699.44"/>
    </edge>
    <edge id="180814145#6" from="26086116" to="26416315" priority="4" type="highway.residential" shape="623.85,704.00 624.47,710.20 629.42,760.25 630.22,768.34">
        <lane id="180814145#6_0" index="0" speed="13.89" length="55.34" shape="625.90,707.93 626.11,710.04 631.06,760.09 631.35,763.01"/>
    </edge>
    <edge id="19897770#0" from="208769091" to="54803122" priority="4" type="highway.residential" spreadType="center" shape="804.40,330.01 801.31,445.73 794.81,534.87">