<?xml version="1.0"?>
<!-- generated on 2013-10-07 16:24:26.715674 by $Id: randomTrips.py 12979 2012-11-14 14:42:19Z namdre $ -->
<trips>
    <trip id="0" depart="0.00" from="7345536#0" to="8100173#4" />
    <trip id="1" depart="1.00" from="33581445#0" to="7345542" />
    <trip id="2" depart="2.00" from="8080868#1" to="33581449#0" />
    <trip id="3" depart="3.00" from="130801488#1" to="60412902#3" />
    <trip id="4" depart="4.00" from="30835643" to="128932869#1" />
    <trip id="5" depart="5.00" from="8080867" to="128930536" />
    <trip id="6" depart="6.00" from="-138231959#0" to="-119438058#5" />
    <trip id="7" depart="7.00" from="25809315#5" to="7345536#1" />
    <trip id="8" depart="8.00" from="-209183483#4" to="207210792#0" />
    <trip id="9" depart="9.00" from="33581450#2" to="174044127#1" />
    <trip id="10" depart="10.00" from="207728318#2" to="8100169#1" />
    <trip id="11" depart="11.00" from="159830150" to="180814145#5" />
    <trip id="12" depart="12.00" from="20660358#0" to="128930534#0" />
    <trip id="13" depart="13.00" from="122317544#0" to="113482868#1" />
    <trip id="14" depart="14.00" from="-128752307" to="-207728318#1" />
    <trip id="15" depart="15.00" from="-130801488#7" to="30835753" />
    <trip id="16" depart="16.00" from="-207908670#10" to="5936383" />
    <trip id="17" depart="17.00" from="124327152" to="-7655234#5" />
    <trip id="18" depart="18.00" from="207728319#8" to="-207728319#7" />
    <trip id="19" depart="19.00" from="-29205082#3" to="122317544#1" />
    <trip id="20" depart="20.00" from="33519832#1" to="119440078#0" />
    <trip id="21" depart="21.00" from="33581445#1" to="-207728319#9" />
    <trip id="22" depart="22.00" from="124327153" to="7917439#5" />
    <trip id="23" depart="23.00" from="60412902#1" to="-7395437#0" />
    <trip id="24" depart="24.00" from="207728319#5" to="-7345562" />
    <trip id="25" depart="25.00" from="4325628#1" to="-209183483#0" />
    <trip id="26" depart="26.00" from="7345567#0" to="-8100169#2" />
    <trip id="27" depart="27.00" from="7345550#1" to="-7917435#3" />
    <trip id="28" depart="28.00" from="19899041" to="209183487#6" />
    <trip id="29" depart="29.00" from="25809315#1" to="-33581446" />
    <trip id="30" depart="30.00" from="7917435#5" to="25809315#8" />
    <trip id="31" depart="31.00" from="30836054#1" to="12182447#1" />
    <trip id="32" depart="32.00" from="25809315#3" to="4325634#5" />
    <trip id="33" depart="33.00" from="-7917432" to="7917439#5" />
    <trip id="34" depart="34.00" from="-207728319#4" to="-209183483#4" />
    <trip id="35" depart="35.00" from="4325628#2" to="207728320" />
    <trip id="36" depart="36.00" from="171797500" to="181422641#2" />
    <trip id="37" depart="37.00" from="33581447#1" to="4325628#3" />
    <trip id="38" depart="38.00" from="60412902#5" to="120171995#2" />
    <trip id="39" depart="39.00" from="33581447#1" to="120171995#4" />
    <trip id="40" depart="40.00" from="-7345550#2" to="7345553#0" />
    <trip id="41" depart="41.00" from="-43941802" to="174044130#2" />
    <trip id="42" depart="42.00" from="7917435#3" to="128930534#0" />
    <trip id="43" depart="43.00" from="7653575#2" to="-30835643" />
    <trip id="44" depart="44.00" from="7345550#1" to="119438059#0" />
    <trip id="45" depart="45.00" from="-130801488#3" to="7917439#3" />
    <trip id="46" depart="46.00" from="224610352" to="7653575#0" />
    <trip id="47" depart="47.00" from="-130801488#1" to="-115974092#0" />
    <trip id="48" depart="48.00" from="-147614715" to="-207728318#2" />
    <trip id="49" depart="49.00" from="207210792#1" to="-130801488#7" />
    <trip id="50" depart="50.00" from="-7917435#0" to="-10361810#0" />
    <trip id="51" depart="51.00" from="209183483#0" to="38771464" />
    <trip id="52" depart="52.00" from="130801488#5" to="209183482#0" />
    <trip id="53" depart="53.00" from="174044129#0" to="7395437#2" />
    <trip id="54" depart="54.00" from="180814145#0" to="-33581449#0" />
    <trip id="55" depart="55.00" from="19897770#0" to="-207908664#0" />
    <trip id="56" depart="56.00" from="-7345542" to="-207728320" />
    <trip id="57" depart="57.00" from="-30835718" to="128931504#4" />
    <trip id="58" depart="58.00" from="5000056#2" to="-19897787#3" />
    <trip id="59" depart="59.00" from="-130096026#3" to="5000056#3" />
    <trip id="60" depart="60.00" from="113482868#0" to="12182447#1" />
    <trip id="61" depart="61.00" from="-7917431#2" to="-7917432" />
    <trip id="62" depart="62.00" from="219406890#0" to="-8100173#2" />
    <trip id="63" depart="63.00" from="159830150" to="-7655233#1" />
    <trip id="64" depart="64.00" from="7653578#2" to="7345550#2" />
    <trip id="65" depart="65.00" from="7653578#2" to="-19897787#3" />
    <trip id="66" depart="66.00" from="-150882376" to="-119438058#2" />
    <trip id="67" depart="67.00" from="7653575#2" to="7345567#0" />
    <trip id="68" depart="68.00" from="207908670#7" to="8100173#1" />
    <trip id="69" depart="69.00" from="122317544#0" to="-207908664#1" />
    <trip id="70" depart="70.00" from="-73012193" to="-130096026#3" />
    <trip id="71" depart="71.00" from="209183487#5" to="128930536" />
    <trip id="72" depart="72.00" from="7345550#2" to="-180814145#3" />
    <trip id="73" depart="73.00" from="5984513" to="29205082#2" />
    <trip id="74" depart="74.00" from="130801488#7" to="60412902#5" />
    <trip id="75" depart="75.00" from="-207908664#1" to="5936381#0" />
    <trip id="76" depart="76.00" from="30835718" to="8080873#3" />
    <trip id="77" depart="77.00" from="4325634#7" to="7345553#1" />
    <trip id="78" depart="78.00" from="5936381#0" to="7653575#2" />
    <trip id="79" depart="79.00" from="-33581447#1" to="-33581447#0" />
    <trip id="80" depart="80.00" from="7345542" to="-130801488#9" />
    <trip id="81" depart="81.00" from="-7655234#1" to="-8100173#3" />
    <trip id="82" depart="82.00" from="120171995#0" to="8080869" />
    <trip id="83" depart="83.00" from="128930533" to="-8100173#0" />
    <trip id="84" depart="84.00" from="-18498055" to="128932868" />
    <trip id="85" depart="85.00" from="8080868#2" to="147614715" />
    <trip id="86" depart="86.00" from="219495257" to="122317544#0" />
    <trip id="87" depart="87.00" from="-30835742" to="207728319#5" />
    <trip id="88" depart="88.00" from="7655227#0" to="-181422641#0" />
    <trip id="89" depart="89.00" from="174044130#1" to="-207908670#9" />
    <trip id="90" depart="90.00" from="23892139" to="8080872#1" />
    <trip id="91" depart="91.00" from="-19897787#2" to="19897787#2" />
    <trip id="92" depart="92.00" from="5936381#0" to="156378607#0" />
    <trip id="93" depart="93.00" from="-10361810#0" to="29205082#2" />
    <trip id="94" depart="94.00" from="23892139" to="33581449#0" />
    <trip id="95" depart="95.00" from="19898322" to="128931504#1" />
    <trip id="96" depart="96.00" from="-7395441" to="120171995#1" />
    <trip id="97" depart="97.00" from="-130801488#7" to="-207728318#1" />
    <trip id="98" depart="98.00" from="-7655234#0" to="-7345542" />
    <trip id="99" depart="99.00" from="128930536" to="126471497#1" />
    <trip id="100" depart="100.00" from="207728319#2" to="19901338#0" />
    <trip id="101" depart="101.00" from="-7917435#0" to="-19897787#4" />
    <trip id="102" depart="102.00" from="5000056#3" to="207210790" />
    <trip id="103" depart="103.00" from="-130096032#0" to="-147614712#0" />
    <trip id="104" depart="104.00" from="8100162" to="5936899#0" />
    <trip id="105" depart="105.00" from="-130096032#0" to="115971449" />
    <trip id="106" depart="106.00" from="174044131#2" to="19901338#0" />
    <trip id="107" depart="107.00" from="7917438#0" to="7917436" />
    <trip id="108" depart="108.00" from="7655231#0" to="33581449#0" />
    <trip id="109" depart="109.00" from="181422641#0" to="-124327151#1" />
    <trip id="110" depart="110.00" from="-7917435#4" to="7917440" />
    <trip id="111" depart="111.00" from="-207728319#13" to="-207728319#3" />
    <trip id="112" depart="112.00" from="-108255160" to="207728319#0" />
    <trip id="113" depart="113.00" from="-124327151#0" to="-180814145#6" />
    <trip id="114" depart="114.00" from="126471497#6" to="174044127#2" />
    <trip id="115" depart="115.00" from="7345542" to="128931504#5" />
    <trip id="116" depart="116.00" from="7655226#2" to="219406890#0" />
    <trip id="117" depart="117.00" from="207728319#4" to="-38771464" />
    <trip id="118" depart="118.00" from="-30835742" to="-166283486" />
    <trip id="119" depart="119.00" from="119438058#5" to="119438058#7" />
    <trip id="120" depart="120.00" from="7917438#0" to="-131133582#2" />
    <trip id="121" depart="121.00" from="-207908664#2" to="119438058#2" />
    <trip id="122" depart="122.00" from="-130801488#7" to="-7345557" />
    <trip id="123" depart="123.00" from="-23892140#0" to="207210792#2" />
    <trip id="124" depart="124.00" from="7395443#0" to="-119438058#3" />
    <trip id="125" depart="125.00" from="-19897790" to="-7655234#4" />
    <trip id="126" depart="126.00" from="126471497#7" to="-124327151#1" />
    <trip id="127" depart="127.00" from="-18498055" to="126471497#2" />
    <trip id="128" depart="128.00" from="8100169#0" to="4325634#8" />
    <trip id="129" depart="129.00" from="-29205082#3" to="8080869" />
    <trip id="130" depart="130.00" from="207908670#9" to="33582223" />
    <trip id="131" depart="131.00" from="-108255160" to="29205083" />
    <trip id="132" depart="132.00" from="-19898322" to="7917438#0" />
    <trip id="133" depart="133.00" from="19901338#1" to="130096026#1" />
    <trip id="134" depart="134.00" from="-7653575#1" to="-207728318#1" />
    <trip id="135" depart="135.00" from="7655230#1" to="156378607#0" />
    <trip id="136" depart="136.00" from="-29205082#2" to="-19897787#2" />
    <trip id="137" depart="137.00" from="7655230#0" to="-138231959#0" />
    <trip id="138" depart="138.00" from="180814145#5" to="174044131#1" />
    <trip id="139" depart="139.00" from="-147614712#1" to="-12182447#0" />
    <trip id="140" depart="140.00" from="7345553#2" to="130801488#1" />
    <trip id="141" depart="141.00" from="-130801488#9" to="7653574#2" />
    <trip id="142" depart="142.00" from="128931504#4" to="166283486" />
    <trip id="143" depart="143.00" from="209183487#6" to="7345567#2" />
    <trip id="144" depart="144.00" from="219495257" to="-23892140#0" />
    <trip id="145" depart="145.00" from="33581449#0" to="33581452" />
    <trip id="146" depart="146.00" from="130096034#0" to="-207908670#10" />
    <trip id="147" depart="147.00" from="-209183483#4" to="29205082#2" />
    <trip id="148" depart="148.00" from="-207908670#9" to="33581450#2" />
    <trip id="149" depart="149.00" from="25809315#7" to="8100166" />
    <trip id="150" depart="150.00" from="-207908664#1" to="4325628#4" />
    <trip id="151" depart="151.00" from="209183483#6" to="8080868#1" />
    <trip id="152" depart="152.00" from="4325634#7" to="207728318#1" />
    <trip id="153" depart="153.00" from="7655231#2" to="19899042#3" />
    <trip id="154" depart="154.00" from="132967554#2" to="7345536#0" />
    <trip id="155" depart="155.00" from="7345567#0" to="126471497#11" />
    <trip id="156" depart="156.00" from="128931504#0" to="119438058#3" />
    <trip id="157" depart="157.00" from="-8100169#2" to="7655226#2" />
    <trip id="158" depart="158.00" from="174044130#4" to="-7345550#0" />
    <trip id="159" depart="159.00" from="7917438#0" to="207728319#3" />
    <trip id="160" depart="160.00" from="119440078#2" to="-19897787#3" />
    <trip id="161" depart="161.00" from="-209183483#5" to="4325634#2" />
    <trip id="162" depart="162.00" from="-7395437#0" to="7917438#2" />
    <trip id="163" depart="163.00" from="219495257" to="8080869" />
    <trip id="164" depart="164.00" from="-8100173#1" to="-207728319#7" />
    <trip id="165" depart="165.00" from="7345531#0" to="8100173#1" />
    <trip id="166" depart="166.00" from="-8100173#5" to="-207908670#9" />
    <trip id="167" depart="167.00" from="-207728319#0" to="126471497#1" />
    <trip id="168" depart="168.00" from="7917435#4" to="-180814145#3" />
    <trip id="169" depart="169.00" from="8080871#1" to="-8100173#1" />
    <trip id="170" depart="170.00" from="209183483#4" to="130096026#2" />
    <trip id="171" depart="171.00" from="7917440" to="4325634#3" />
    <trip id="172" depart="172.00" from="30836054#1" to="33581445#1" />
    <trip id="173" depart="173.00" from="7345536#3" to="128930529#1" />
    <trip id="174" depart="174.00" from="207908670#10" to="7345536#0" />
    <trip id="175" depart="175.00" from="7655230#2" to="209183487#4" />
    <trip id="176" depart="176.00" from="207728319#11" to="207210792#2" />
    <trip id="177" depart="177.00" from="180814145#4" to="7655234#1" />
    <trip id="178" depart="178.00" from="-180814145#6" to="128931504#1" />
    <trip id="179" depart="179.00" from="-8100173#0" to="209183483#2" />
    <trip id="180" depart="180.00" from="33581445#0" to="219406890#1" />
    <trip id="181" depart="181.00" from="7345531#4" to="-7655230#1" />
    <trip id="182" depart="182.00" from="156378607#0" to="219406890#1" />
    <trip id="183" depart="183.00" from="-130801488#7" to="-29205082#2" />
    <trip id="184" depart="184.00" from="7655230#2" to="-8080873#1" />
    <trip id="185" depart="185.00" from="-8100173#2" to="7917438#3" />
    <trip id="186" depart="186.00" from="-7917435#5" to="120171995#0" />
    <trip id="187" depart="187.00" from="-130801488#3" to="181422641#3" />
    <trip id="188" depart="188.00" from="-29205082#1" to="207728318#1" />
    <trip id="189" depart="189.00" from="-7395437#1" to="-130096026#1" />
    <trip id="190" depart="190.00" from="-29205082#2" to="174044127#2" />
    <trip id="191" depart="191.00" from="33581447#0" to="207728319#13" />
    <trip id="192" depart="192.00" from="-207908664#2" to="-30835718" />
    <trip id="193" depart="193.00" from="7655234#3" to="25809315#3" />
    <trip id="194" depart="194.00" from="-10361810#0" to="128930536" />
    <trip id="195" depart="195.00" from="130096032#0" to="207908670#5" />
    <trip id="196" depart="196.00" from="-115971449" to="207728319#13" />
    <trip id="197" depart="197.00" from="-19897787#5" to="-7655226#0" />
    <trip id="198" depart="198.00" from="-8080873#0" to="7917435#5" />
    <trip id="199" depart="199.00" from="-73012193" to="174044130#1" />
</trips>