<?xml version="1.0"?>
<!-- generated on 2013-10-08 11:55:48.494346 by $Id: randomTrips.py 12979 2012-11-14 14:42:19Z namdre $ -->
<trips>
    <trip id="0" depart="0.00" from="-130096032#1" to="181422641#3" />
    <trip id="1" depart="1.00" from="7917438#0" to="181422641#1" />
    <trip id="2" depart="2.00" from="-30836054#2" to="25809315#0" />
    <trip id="3" depart="3.00" from="25809315#2" to="23892090#1" />
    <trip id="4" depart="4.00" from="-147614715" to="-181422641#1" />
    <trip id="5" depart="5.00" from="-8080873#3" to="174044126#0" />
    <trip id="6" depart="6.00" from="8100169#2" to="-128752307" />
    <trip id="7" depart="7.00" from="171797500" to="5936891#1" />
    <trip id="8" depart="8.00" from="7655231#1" to="-119438058#6" />
    <trip id="9" depart="9.00" from="7917439#4" to="60412902#1" />
    <trip id="10" depart="10.00" from="-19898322" to="7917439#3" />
    <trip id="11" depart="11.00" from="-19897787#5" to="-131133582#2" />
    <trip id="12" depart="12.00" from="5984513" to="-207728318#2" />
    <trip id="13" depart="13.00" from="-7917431#1" to="-130801488#8" />
    <trip id="14" depart="14.00" from="119438059#0" to="23892090#1" />
    <trip id="15" depart="15.00" from="-207908670#5" to="130096026#2" />
    <trip id="16" depart="16.00" from="25809315#5" to="-8080873#1" />
    <trip id="17" depart="17.00" from="-207908670#3" to="128930533" />
    <trip id="18" depart="18.00" from="12182447#2" to="-219406890#0" />
    <trip id="19" depart="19.00" from="-130096032#1" to="-130801488#4" />
    <trip id="20" depart="20.00" from="4325628#5" to="19897790" />
    <trip id="21" depart="21.00" from="147614712#0" to="33581452" />
    <trip id="22" depart="22.00" from="207908670#3" to="126471497#11" />
    <trip id="23" depart="23.00" from="12182441" to="-8100169#0" />
    <trip id="24" depart="24.00" from="-12182447#2" to="130801488#2" />
    <trip id="25" depart="25.00" from="113944613" to="60412902#1" />
    <trip id="26" depart="26.00" from="207908664#2" to="128931504#4" />
    <trip id="27" depart="27.00" from="7345553#2" to="8080869" />
    <trip id="28" depart="28.00" from="207728319#11" to="174044130#0" />
    <trip id="29" depart="29.00" from="130096032#1" to="-180814145#0" />
    <trip id="30" depart="30.00" from="33581452" to="5936891#0" />
    <trip id="31" depart="31.00" from="-29205082#0" to="174044126#0" />
    <trip id="32" depart="32.00" from="-19897787#4" to="19899042#2" />
    <trip id="33" depart="33.00" from="-207728319#7" to="10361810#1" />
    <trip id="34" depart="34.00" from="130801488#3" to="207728319#9" />
    <trip id="35" depart="35.00" from="207210790" to="-131133582#0" />
    <trip id="36" depart="36.00" from="-207908670#9" to="-150882376" />
    <trip id="37" depart="37.00" from="108255160" to="124327153" />
    <trip id="38" depart="38.00" from="130801488#7" to="-33581450#0" />
    <trip id="39" depart="39.00" from="-130096026#3" to="130096034#2" />
    <trip id="40" depart="40.00" from="7345550#2" to="-8080873#2" />
    <trip id="41" depart="41.00" from="130801488#3" to="126471497#1" />
    <trip id="42" depart="42.00" from="7917435#1" to="-181422641#0" />
    <trip id="43" depart="43.00" from="-130096026#2" to="7345553#0" />
    <trip id="44" depart="44.00" from="-8080873#2" to="-119438058#3" />
    <trip id="45" depart="45.00" from="8100169#2" to="-19897787#4" />
    <trip id="46" depart="46.00" from="-7917435#0" to="207728318#2" />
    <trip id="47" depart="47.00" from="-207728319#11" to="207728320" />
    <trip id="48" depart="48.00" from="174044130#2" to="5936381#1" />
    <trip id="49" depart="49.00" from="8080871#0" to="174044130#1" />
    <trip id="50" depart="50.00" from="8080868#1" to="7653574#1" />
    <trip id="51" depart="51.00" from="147614715" to="126471497#12" />
    <trip id="52" depart="52.00" from="8080867" to="38771464" />
    <trip id="53" depart="53.00" from="8100173#1" to="4325634#4" />
    <trip id="54" depart="54.00" from="209183483#3" to="-30835643" />
    <trip id="55" depart="55.00" from="219495257" to="207908664#2" />
    <trip id="56" depart="56.00" from="7917439#3" to="5000056#2" />
    <trip id="57" depart="57.00" from="7655227#1" to="-10361810#0" />
    <trip id="58" depart="58.00" from="60412902#5" to="207728318#1" />
    <trip id="59" depart="59.00" from="209183487#4" to="-33581450#0" />
    <trip id="60" depart="60.00" from="4325628#2" to="7653580" />
    <trip id="61" depart="61.00" from="128752307" to="19897787#2" />
    <trip id="62" depart="62.00" from="-7917435#3" to="19897787#4" />
    <trip id="63" depart="63.00" from="33519832#1" to="122317544#0" />
    <trip id="64" depart="64.00" from="120171995#3" to="-7653575#2" />
    <trip id="65" depart="65.00" from="-33581449#0" to="119438058#7" />
    <trip id="66" depart="66.00" from="5936383" to="33519832#0" />
    <trip id="67" depart="67.00" from="-73012193" to="7345562" />
    <trip id="68" depart="68.00" from="19901610" to="-7655231#0" />
    <trip id="69" depart="69.00" from="130801488#7" to="126471497#9" />
    <trip id="70" depart="70.00" from="-29205083" to="130096026#4" />
    <trip id="71" depart="71.00" from="60412902#6" to="128922240#0" />
    <trip id="72" depart="72.00" from="23892139" to="-207728319#7" />
    <trip id="73" depart="73.00" from="207908664#0" to="128930529#1" />
    <trip id="74" depart="74.00" from="-209183483#4" to="130096032#1" />
    <trip id="75" depart="75.00" from="19897770#1" to="4325628#6" />
    <trip id="76" depart="76.00" from="8100173#5" to="-7655233#1" />
    <trip id="77" depart="77.00" from="4325634#0" to="126471497#1" />
    <trip id="78" depart="78.00" from="7655234#0" to="-131133582#0" />
    <trip id="79" depart="79.00" from="207728319#2" to="-12182447#2" />
    <trip id="80" depart="80.00" from="181422641#3" to="-207728319#0" />
    <trip id="81" depart="81.00" from="-7395441" to="126471497#11" />
    <trip id="82" depart="82.00" from="-7345562" to="7655230#1" />
    <trip id="83" depart="83.00" from="19899041" to="7917438#2" />
    <trip id="84" depart="84.00" from="180814145#0" to="207908670#9" />
    <trip id="85" depart="85.00" from="207728319#5" to="-119438058#1" />
    <trip id="86" depart="86.00" from="18498052" to="209183483#2" />
    <trip id="87" depart="87.00" from="19897790" to="-156378607#0" />
    <trip id="88" depart="88.00" from="128930534#0" to="126471497#6" />
    <trip id="89" depart="89.00" from="174044130#1" to="19897770#1" />
    <trip id="90" depart="90.00" from="33581450#1" to="-207908664#2" />
    <trip id="91" depart="91.00" from="-138231959#0" to="31893967#0" />
    <trip id="92" depart="92.00" from="122317544#1" to="-19897787#3" />
    <trip id="93" depart="93.00" from="128930533" to="29205082#3" />
    <trip id="94" depart="94.00" from="19901610" to="8100173#3" />
    <trip id="95" depart="95.00" from="33581452" to="126471497#12" />
    <trip id="96" depart="96.00" from="-130801488#9" to="130096030" />
    <trip id="97" depart="97.00" from="126471497#4" to="124327151#0" />
    <trip id="98" depart="98.00" from="-8100173#2" to="-124327151#1" />
    <trip id="99" depart="99.00" from="60412902#5" to="180814145#6" />
</trips>