<?xml version="1.0"?>

<!-- generated on Tue Oct  8 11:55:48 2013 by SUMO duarouter Version 0.16.0
<?xml version="1.0" encoding="UTF-8"?>

<configuration xmlns:xsi="http://www.w3.org/2001/XMLSchema-instance" xsi:noNamespaceSchemaLocation="http://sumo.sf.net/xsd/duarouterConfiguration.xsd">

    <input>
        <net-file value="data/map.net.xml"/>
        <trip-files value="data/map.trips.xml"/>
    </input>

    <output>
        <output-file value="data/map.rou.xml"/>
    </output>

    <processing>
        <ignore-errors value="true"/>
        <repair value="true"/>
    </processing>

</configuration>
-->

<routes xmlns:xsi="http://www.w3.org/2001/XMLSchema-instance" xsi:noNamespaceSchemaLocation="http://sumo.sf.net/xsd/routes_file.xsd">
    <vehicle id="0" depart="0.00">
        <route edges="-130096032#1 -130096032#0 -119438058#7 -119438058#6 -119438058#5 -119438058#4 -119438058#3 -119438058#2 -119438058#1 -119438058#0 -207728320 -207728318#2 -12182447#2 -29205083 29205082#1 29205082#2 29205082#3 128930529#1 128930533 -7917431#2 -7917431#1 -181422641#3 8080872#0 -8080873#2 8080871#2 181422641#2 181422641#3"/>
    </vehicle>
    <vehicle id="1" depart="1.00">
        <route edges="7917438#0 7917438#1 7917438#2 7917438#3 174044129#2 174044129#3 -7917435#4 -7917435#3 -7917435#1 -7917435#0 -7653575#2 -7653575#1 -7653575#0 209183487#0 209183487#1 209183487#2 8080867 181422641#0 181422641#1"/>
    </vehicle>
    <vehicle id="2" depart="2.00">
        <route edges="-30836054#2 -30836054#1 128932869#0 128932869#1 130801488#1 130801488#2 130801488#3 130801488#4 130801488#5 130801488#7 130801488#8 130801488#9 -207728319#3 25809315#0"/>
    </vehicle>
    <vehicle id="3" depart="3.00">
        <route edges="25809315#2 25809315#3 122317544#1 122317544#2 122317544#3 174044131#0 174044131#1 174044131#2 174044131#3 174044131#4 174044130#0 174044130#1 7345562 7345557 207728319#11 207728319#13 33581447#0 33581447#1 8100169#0 8100169#1 8100169#2 23892090#0 23892090#1"/>
    </vehicle>
    <vehicle id="5" depart="5.00">
        <route edges="-8080873#3 8080872#1 7653578#2 126471497#2 126471497#4 126471497#5 7917431#1 7917431#2 128930534#0 207908670#3 7917440 174044126#0"/>
    </vehicle>
    <vehicle id="7" depart="7.00">
        <route edges="171797500 130096032#1 130096026#0 -8100173#6 -8100173#5 -8100173#4 174044130#0 174044130#1 174044130#2 174044130#3 174044130#4 207210790 4325632#0 5936891#0 5936891#1"/>
    </vehicle>
    <vehicle id="8" depart="8.00">
        <route edges="7655231#1 -7655234#0 7395437#0 7395437#1 7395437#2 7652725 30836054#1 30836054#2 128931504#0 128931504#1 128931504#2 128931504#3 128931504#4 128931504#5 171797500 -130096032#0 -119438058#7 -119438058#6"/>
    </vehicle>
    <vehicle id="10" depart="10.00">
        <route edges="-19898322 31893967#0 31893967#1 180814145#5 180814145#6 60412902#6 7345531#0 7345531#1 7345531#2 7345531#3 7345531#4 7652725 128932869#0 128932869#1 219406890#0 219406890#1 126471497#0 126471497#1 126471497#2 126471497#4 126471497#5 7917431#1 7917431#2 128930534#0 207908670#3 207908670#5 7917436 7917439#5 7917439#4 7917439#3"/>
    </vehicle>
    <vehicle id="11" depart="11.00">
        <route edges="-19897787#5 -7655234#2 -7655234#1 -7655234#0 7395437#0 7395437#1 7395437#2 8100173#0 8100173#1 8100173#2 8100173#3 174044130#0 174044130#1 7345562 7345557 207728319#11 207728319#13 33581447#0 33581447#1 8100169#0 8100169#1 -33582222 33582223 -131133582#2"/>
    </vehicle>
    <vehicle id="12" depart="12.00">
        <route edges="5984513 33519832#1 4325632#1 60412902#5 60412902#6 7345531#0 7345531#1 7345531#2 7345531#3 7345531#4 7652725 128932869#0 128932869#1 219406890#0 219406890#1 7917435#0 7917435#1 7917435#3 7917435#4 7917435#5 207728319#0 12182441 -119438058#0 -207728320 -207728318#2"/>
    </vehicle>
    <vehicle id="13" depart="13.00">
        <route edges="-7917431#1 -181422641#3 8080872#0 8080873#3 126471497#4 126471497#5 7917431#1 7917431#2 128930534#0 207908670#3 207908670#5 207908670#7 207908670#8 207908670#9 207908670#10 207728319#0 207728319#2 207728319#3 -130801488#9 -130801488#8"/>
    </vehicle>
    <vehicle id="14" depart="14.00">
        <route edges="119438059#0 119438059#1 207728318#0 207728318#1 207728318#2 207728320 119438058#0 119438058#1 119438058#2 119438058#3 119438058#4 119438058#5 119438058#6 119438058#7 130096032#0 130096032#1 130096026#0 130096026#1 130096026#2 130096026#3 130096026#4 33581453 8100169#0 8100169#1 8100169#2 23892090#0 23892090#1"/>
    </vehicle>
    <vehicle id="15" depart="15.00">
        <route edges="-207908670#5 -207908670#3 128922240#0 174044127#1 174044127#2 25736273 7917436 174044129#0 174044129#1 174044129#2 174044129#3 122320050 122317544#0 122317544#1 122317544#2 122317544#3 174044131#0 174044131#1 174044131#2 174044131#3 174044131#4 8100173#4 8100173#5 8100173#6 130096026#1 130096026#2"/>
    </vehicle>
    <vehicle id="16" depart="16.00">
        <route edges="25809315#5 10361810#0 10361810#1 -7917435#1 -7917435#0 126471497#0 126471497#1 126471497#2 -8080873#3 -8080873#2 -8080873#1"/>
    </vehicle>
    <vehicle id="17" depart="17.00">
        <route edges="-207908670#3 128930533"/>
    </vehicle>
    <vehicle id="18" depart="18.00">
        <route edges="12182447#2 207728318#2 207728320 12182442 -7917435#5 -7917435#4 -7917435#3 -7917435#1 -7917435#0 -219406890#1 -219406890#0"/>
    </vehicle>
    <vehicle id="19" depart="19.00">
        <route edges="-130096032#1 -130096032#0 -119438058#7 -119438058#6 -119438058#5 -119438058#4 -119438058#3 -119438058#2 -119438058#1 -119438058#0 12182442 -7917435#5 122320050 122317544#0 122317544#1 122317544#2 122317544#3 -130801488#4"/>
    </vehicle>
    <vehicle id="20" depart="20.00">
        <route edges="4325628#5 4325628#6 4325628#7 -207908664#0 4325633#0 4325633#1 4325633#2 4325632#0 4325632#1 60412902#5 60412902#6 7345531#0 7345531#1 7345531#2 7345531#3 7345531#4 7653574#0 7653574#1 7653574#2 209183482#0 128932870 -19897787#5 -19897787#4 -19897787#3 -19897787#2 19897790"/>
    </vehicle>
    <vehicle id="21" depart="21.00">
        <route edges="147614712#0 147614715 -23892140#0 33581450#2 119438059#0 119438059#1 29205082#0 29205082#1 29205082#2 29205082#3 174044127#1 174044127#2 25736273 7917436 174044129#0 174044129#1 174044129#2 174044129#3 122320050 122317544#0 122317544#1 122317544#2 122317544#3 174044131#0 174044131#1 174044131#2 174044131#3 174044131#4 174044130#0 174044130#1 7345562 7345557 207728319#11 207728319#13 33581447#0 33581447#1 33581452"/>
    </vehicle>
    <vehicle id="22" depart="22.00">
        <route edges="207908670#3 7917440 174044126#0 174044126#1 126471497#5 126471497#6 126471497#7 126471497#8 126471497#9 126471497#10 126471497#11"/>
    </vehicle>
    <vehicle id="23" depart="23.00">
        <route edges="12182441 119438058#1 119438058#2 119438058#3 119438058#4 119438058#5 119438058#6 119438058#7 130096032#0 130096032#1 130096026#0 130096026#1 130096026#2 130096026#3 130096026#4 33581453 -33581447#1 -33581447#0 131133582#0 131133582#2 207908664#0 207908664#1 8100166 -8100169#2 -8100169#1 -8100169#0"/>
    </vehicle>
    <vehicle id="24" depart="24.00">
        <route edges="-12182447#2 -12182447#1 -12182447#0 207908670#9 207908670#10 -7917435#5 122320050 122317544#0 25809315#4 25809315#5 25809315#6 25809315#7 25809315#8 132967554#0 130801488#2"/>
    </vehicle>
    <vehicle id="27" depart="27.00">
        <route edges="7345553#2 174044130#4 207210790 4325632#0 4325632#1 60412902#5 60412902#6 7345531#0 7345531#1 7345531#2 7345531#3 7345531#4 7653574#0 7653574#1 7653574#2 209183482#0 209183482#1 209183482#2 209183487#0 209183487#1 209183487#2 8080867 181422641#0 -156378607#1 -156378607#0 8080869"/>
    </vehicle>
    <vehicle id="28" depart="28.00">
        <route edges="207728319#11 7345536#0 4325634#5 4325634#7 4325634#8 -8100173#4 174044130#0"/>
    </vehicle>
    <vehicle id="29" depart="29.00">
        <route edges="130096032#1 130096026#0 -8100173#6 -8100173#5 -8100173#4 174044130#0 174044130#1 174044130#2 174044130#3 174044130#4 207210790 4325632#0 4325632#1 60412902#5 -180814145#6 -180814145#5 -180814145#4 -180814145#3 -180814145#2 -180814145#1 -180814145#0"/>
    </vehicle>
    <vehicle id="30" depart="30.00">
        <route edges="33581452 -130096026#4 -130096026#3 -130096026#2 -130096026#1 -8100173#6 -8100173#5 -8100173#4 174044130#0 174044130#1 174044130#2 174044130#3 174044130#4 207210790 4325632#0 5936891#0"/>
    </vehicle>
    <vehicle id="31" depart="31.00">
        <route edges="-29205082#0 -119438059#1 -119438059#0 -33581450#2 -23892139 119440078#3 119440078#4 174044127#1 174044127#2 143995130 7917440 174044126#0"/>
    </vehicle>
    <vehicle id="32" depart="32.00">
        <route edges="-19897787#4 -19897787#3 -19897787#2 19897790 224610352 7655233#1 33300398 -19899041 -33300388 19897770#1 19898322 19901338#1 19899042#1 19899042#2"/>
    </vehicle>
    <vehicle id="33" depart="33.00">
        <route edges="-207728319#7 -207728319#5 -207728319#4 -207728319#3 -207728319#2 124327152 124327151#0 124327151#1 10361810#1"/>
    </vehicle>
    <vehicle id="34" depart="34.00">
        <route edges="130801488#3 130801488#4 174044131#0 174044131#1 174044131#2 174044131#3 174044131#4 8100173#4 8100173#5 207728319#9"/>
    </vehicle>
    <vehicle id="35" depart="35.00">
        <route edges="207210790 5936692#0 4325628#2 4325628#3 4325628#4 4325628#5 4325628#6 4325628#7 -207908664#0 -131133582#2 -131133582#0"/>
    </vehicle>
    <vehicle id="36" depart="36.00">
        <route edges="-207908670#9 12182447#0 12182447#1 -29205083 -29205082#0 -119438059#1 -119438059#0 -33581450#2 -33581450#1 -150882376"/>
    </vehicle>
    <vehicle id="37" depart="37.00">
        <route edges="108255160 119440078#0 119440078#1 119440078#2 119440078#3 119440078#4 174044127#1 174044127#2 25736273 207908670#7 207908670#8 207908670#9 207908670#10 207728319#0 124327152 124327153"/>
    </vehicle>
    <vehicle id="38" depart="38.00">
        <route edges="130801488#7 130801488#8 130801488#9 -207728319#3 -207728319#2 12182441 -119438058#0 -207728320 -207728318#2 -207728318#1 -207728318#0 -119438059#1 -119438059#0 -33581450#2 -33581450#1 -33581450#0"/>
    </vehicle>
    <vehicle id="39" depart="39.00">
        <route edges="-130096026#3 -130096026#2 -130096026#1 -8100173#6 -8100173#5 4325634#9 130096030 130096034#0 130096034#1 130096034#2"/>
    </vehicle>
    <vehicle id="40" depart="40.00">
        <route edges="7345550#2 33519832#0 33519832#1 4325632#1 60412902#5 60412902#6 7345531#0 7345531#1 7345531#2 7345531#3 7345531#4 7652725 128932869#0 128932869#1 219406890#0 219406890#1 126471497#0 126471497#1 126471497#2 -8080873#3 -8080873#2"/>
    </vehicle>
    <vehicle id="41" depart="41.00">
        <route edges="130801488#3 113944613 25809315#5 10361810#0 10361810#1 -7917435#1 -7917435#0 126471497#0 126471497#1"/>
    </vehicle>
    <vehicle id="42" depart="42.00">
        <route edges="7917435#1 -10361810#1 -10361810#0 25809315#6 25809315#7 25809315#8 132967554#0 -130801488#1 219406890#0 219406890#1 126471497#0 126471497#1 126471497#2 126471497#4 126471497#5 -181422641#3 -181422641#2 -181422641#1 -181422641#0"/>
    </vehicle>
    <vehicle id="43" depart="43.00">
        <route edges="-130096026#2 -130096026#1 -8100173#6 -8100173#5 -8100173#4 174044130#0 174044130#1 174044130#2 174044130#3 174044130#4 207210790 4325632#0 4325632#1 60412902#5 60412902#6 7345553#0"/>
    </vehicle>
    <vehicle id="44" depart="44.00">
        <route edges="-8080873#2 8080871#2 181422641#2 181422641#3 7917431#1 7917431#2 128930534#0 207908670#3 207908670#5 7917436 174044129#0 174044129#1 174044129#2 174044129#3 122320050 122317544#0 122317544#1 122317544#2 122317544#3 174044131#0 174044131#1 174044131#2 128931504#3 128931504#4 128931504#5 171797500 -130096032#0 -119438058#7 -119438058#6 -119438058#5 -119438058#4 -119438058#3"/>
    </vehicle>
    <vehicle id="46" depart="46.00">
        <route edges="-7917435#0 126471497#0 126471497#1 126471497#2 126471497#4 126471497#5 7917431#1 7917431#2 128930534#0 128922240#0 -29205082#3 -29205082#2 -29205082#1 29205083 12182447#2 207728318#2"/>
    </vehicle>
    <vehicle id="47" depart="47.00">
        <route edges="-207728319#11 -207728319#9 -207728319#8 -207728319#7 -207728319#5 -207728319#4 -207728319#3 -207728319#2 -207728319#0 -207908670#10 -207908670#9 12182447#0 12182447#1 12182447#2 207728318#2 207728320"/>
    </vehicle>
    <vehicle id="48" depart="48.00">
        <route edges="174044130#2 174044130#3 174044130#4 207210790 4325632#0 4325632#1 60412902#5 -180814145#6 -180814145#5 -180814145#4 -180814145#3 -180814145#2 5936381#0 5936381#1"/>
    </vehicle>
    <vehicle id="49" depart="49.00">
        <route edges="8080871#0 7653578#1 134661171 7653575#2 -219406890#1 -219406890#0 130801488#1 132967554#1 132967554#2 131817724#0 131817724#1 128931504#0 128931504#1 128931504#2 174044131#3 174044131#4 174044130#0 174044130#1"/>
    </vehicle>
    <vehicle id="50" depart="50.00">
        <route edges="8080868#1 156378607#0 156378607#1 181422641#1 181422641#2 181422641#3 7917431#1 7917431#2 128930534#0 207908670#3 207908670#5 7917436 174044129#0 174044129#1 174044129#2 174044129#3 122320050 122317544#0 122317544#1 122317544#2 122317544#3 174044131#0 174044131#1 174044131#2 174044131#3 174044131#4 -8100173#3 -8100173#2 -8100173#1 -8100173#0 7653574#0 7653574#1"/>
    </vehicle>
    <vehicle id="51" depart="51.00">
        <route edges="147614715 -23892140#0 33581450#2 119438059#0 119438059#1 29205082#0 29205082#1 29205082#2 29205082#3 128930529#1 128930533 -7917431#2 -7917431#1 126471497#6 126471497#7 126471497#8 126471497#9 126471497#10 126471497#11 126471497#12"/>
    </vehicle>
    <vehicle id="52" depart="52.00">
        <route edges="8080867 181422641#0 -156378607#1 38771464"/>
    </vehicle>
    <vehicle id="53" depart="53.00">
        <route edges="8100173#1 8100173#2 8100173#3 174044130#0 174044130#1 174044130#2 174044130#3 7345553#3 4325634#4"/>
    </vehicle>
    <vehicle id="54" depart="54.00">
        <route edges="209183483#3 209183483#4 209183483#5 209183483#6 128930533 -7917431#2 -7917431#1 -181422641#3 8080872#0 8080872#1 134661171 -7653575#1 -7653575#0 -7655226#2 -7655226#1 -30835718 -30835643"/>
    </vehicle>
    <vehicle id="55" depart="55.00">
        <route edges="219495257 207728320 119438058#0 119438058#1 119438058#2 119438058#3 119438058#4 119438058#5 119438058#6 119438058#7 130096032#0 130096032#1 130096026#0 130096026#1 130096026#2 130096026#3 130096026#4 33581453 -33581447#1 -33581447#0 131133582#0 131133582#2 207908664#0 207908664#1 207908664#2"/>
    </vehicle>
    <vehicle id="56" depart="56.00">
        <route edges="7917439#3 7917439#2 7917439#1 7917439#0 126471497#4 126471497#5 7917431#1 7917431#2 128930534#0 207908670#3 207908670#5 7917436 174044129#0 174044129#1 174044129#2 174044129#3 122320050 122317544#0 122317544#1 122317544#2 122317544#3 174044131#0 174044131#1 174044131#2 174044131#3 174044131#4 174044130#0 174044130#1 174044130#2 174044130#3 174044130#4 207210790 4325632#0 4325632#1 60412902#5 -180814145#6 5936899#0 5000056#1 5000056#2"/>
    </vehicle>
    <vehicle id="57" depart="57.00">
        <route edges="7655227#1 7653578#0 7653578#1 134661171 7653575#2 7917435#0 7917435#1 -10361810#1 -10361810#0"/>
    </vehicle>
    <vehicle id="58" depart="58.00">
        <route edges="60412902#5 60412902#6 7345531#0 7345531#1 7345531#2 7345531#3 7345531#4 7652725 128932869#0 128932869#1 219406890#0 219406890#1 126471497#0 126471497#1 126471497#2 126471497#4 126471497#5 7917431#1 7917431#2 128930534#0 128922240#0 -29205082#3 -29205082#2 -29205082#1 -29205082#0 207728318#0 207728318#1"/>
    </vehicle>
    <vehicle id="59" depart="59.00">
        <route edges="209183487#4 209183487#5 209183487#6 7653580 8080868#0 8080868#1 156378607#0 156378607#1 181422641#1 181422641#2 181422641#3 7917431#1 7917431#2 128930534#0 128922240#0 -29205082#3 -29205082#2 -29205082#1 -29205082#0 -119438059#1 -119438059#0 -33581450#2 -33581450#1 -33581450#0"/>
    </vehicle>
    <vehicle id="60" depart="60.00">
        <route edges="4325628#2 4325628#3 4325628#4 4325634#1 4325633#1 4325633#2 4325632#0 4325632#1 60412902#5 60412902#6 7345531#0 7345531#1 7345531#2 7345531#3 7345531#4 7653574#0 7653574#1 7653574#2 209183482#0 209183482#1 209183482#2 209183487#0 209183487#1 209183487#2 209183487#3 209183487#4 209183487#5 209183487#6 7653580"/>
    </vehicle>
    <vehicle id="61" depart="61.00">
        <route edges="128752307 130096034#1 128931504#5 207728319#8 -8100173#5 -8100173#4 -8100173#3 -8100173#2 -8100173#1 -8100173#0 7653574#0 7653574#1 7653574#2 -7655230#2 -7655230#1 -19897790 19897787#2"/>
    </vehicle>
    <vehicle id="62" depart="62.00">
        <route edges="-7917435#3 -7917435#1 -7917435#0 -7653575#2 -7653575#1 -7653575#0 -7655226#2 -7655226#1 -30835718 -30835697 19897787#2 19897787#3 19897787#4"/>
    </vehicle>
    <vehicle id="63" depart="63.00">
        <route edges="33519832#1 4325632#1 60412902#5 60412902#6 7345531#0 7345531#1 7345531#2 7345531#3 7345531#4 7652725 128932869#0 128932869#1 219406890#0 219406890#1 7917435#0 7917435#1 7917435#3 7917435#4 122320050 122317544#0"/>
    </vehicle>
    <vehicle id="64" depart="64.00">
        <route edges="120171995#3 120171995#4 -207728319#9 -8100173#5 -8100173#4 -8100173#3 -8100173#2 -8100173#1 -8100173#0 7652725 128932869#0 128932869#1 219406890#0 219406890#1 -7653575#2"/>
    </vehicle>
    <vehicle id="65" depart="65.00">
        <route edges="-33581449#0 -33581447#1 -33581447#0 -207728319#13 -207728319#11 -207728319#9 -207728319#8 -207728319#7 -207728319#5 -207728319#4 -207728319#3 -207728319#2 12182441 119438058#1 119438058#2 119438058#3 119438058#4 119438058#5 119438058#6 119438058#7"/>
    </vehicle>
    <vehicle id="66" depart="66.00">
        <route edges="5936383 180814145#3 180814145#4 180814145#5 180814145#6 60412902#6 7345553#0 33519832#0"/>
    </vehicle>
    <vehicle id="67" depart="67.00">
        <route edges="-73012193 130801488#3 130801488#4 174044131#0 174044131#1 174044131#2 174044131#3 174044131#4 174044130#0 174044130#1 7345562"/>
    </vehicle>
    <vehicle id="68" depart="68.00">
        <route edges="19901610 31893967#1 180814145#5 180814145#6 60412902#6 7345531#0 7345531#1 7345531#2 7345531#3 7345531#4 -7395437#2 -7395437#1 -7395437#0 -7655233#1 -7655231#0"/>
    </vehicle>
    <vehicle id="69" depart="69.00">
        <route edges="130801488#7 130801488#8 130801488#9 -207728319#3 -207728319#2 -207728319#0 -207908670#10 -207908670#9 -207908670#8 -207908670#7 -207908670#5 -207908670#3 128930533 -7917431#2 -7917431#1 126471497#6 126471497#7 126471497#8 126471497#9"/>
    </vehicle>
    <vehicle id="70" depart="70.00">
        <route edges="-29205083 -29205082#0 207728318#0 207728318#1 207728318#2 207728320 119438058#0 119438058#1 119438058#2 119438058#3 119438058#4 119438058#5 119438058#6 119438058#7 130096032#0 130096032#1 130096026#0 130096026#1 130096026#2 130096026#3 130096026#4"/>
    </vehicle>
    <vehicle id="71" depart="71.00">
        <route edges="60412902#6 7345531#0 7345531#1 7345531#2 7345531#3 7345531#4 7652725 128932869#0 128932869#1 219406890#0 219406890#1 126471497#0 126471497#1 126471497#2 126471497#4 126471497#5 7917431#1 7917431#2 128930534#0 128922240#0"/>
    </vehicle>
    <vehicle id="72" depart="72.00">
        <route edges="23892139 33581450#2 119438059#0 119438059#1 29205082#0 29205082#1 29205082#2 29205082#3 174044127#1 174044127#2 25736273 7917436 174044129#0 174044129#1 174044129#2 174044129#3 122320050 122317544#0 122317544#1 122317544#2 122317544#3 174044131#0 174044131#1 174044131#2 128931504#3 128931504#4 128931504#5 -207728319#7"/>
    </vehicle>
    <vehicle id="73" depart="73.00">
        <route edges="207908664#0 207908664#1 8100166 -8100169#2 -8100169#1 -8100169#0 -33581447#1 -33581447#0 -207728319#13 -207728319#11 -207728319#9 -207728319#8 -207728319#7 -207728319#5 -207728319#4 -207728319#3 -207728319#2 -207728319#0 -207908670#10 -207908670#9 -207908670#8 -207908670#7 -207908670#5 -207908670#3 128922240#0 128930529#1"/>
    </vehicle>
    <vehicle id="74" depart="74.00">
        <route edges="-209183483#4 18498052 119440078#3 119440078#4 174044127#1 174044127#2 25736273 7917436 174044129#0 174044129#1 174044129#2 174044129#3 122320050 122317544#0 122317544#1 122317544#2 122317544#3 174044131#0 174044131#1 174044131#2 128931504#3 128931504#4 128931504#5 171797500 130096032#1"/>
    </vehicle>
    <vehicle id="75" depart="75.00">
        <route edges="19897770#1 31893967#0 31893967#1 180814145#5 180814145#6 5984513 25736222 207210792#0 7345567#0 7345567#1 4325628#3 4325628#4 4325628#5 4325628#6"/>
    </vehicle>
    <vehicle id="76" depart="76.00">
        <route edges="8100173#5 207728319#9 -7345557 4325634#7 4325634#8 -8100173#4 -8100173#3 -8100173#2 -8100173#1 -8100173#0 -7395437#2 -7395437#1 -7395437#0 -7655233#1"/>
    </vehicle>
    <vehicle id="77" depart="77.00">
        <route edges="4325634#0 4325634#1 4325633#1 4325633#2 4325632#0 4325632#1 60412902#5 60412902#6 7345531#0 7345531#1 7345531#2 7345531#3 7345531#4 7652725 128932869#0 128932869#1 219406890#0 219406890#1 126471497#0 126471497#1"/>
    </vehicle>
    <vehicle id="78" depart="78.00">
        <route edges="7655234#0 -7655231#1 7655233#1 7395437#0 7395437#1 7395437#2 8100173#0 8100173#1 8100173#2 8100173#3 174044130#0 174044130#1 174044130#2 174044130#3 174044130#4 207210792#0 207210792#1 207210792#2 -131133582#0"/>
    </vehicle>
    <vehicle id="79" depart="79.00">
        <route edges="207728319#2 25809315#0 25809315#1 25809315#2 25809315#3 122317544#1 122317544#2 122317544#3 130801488#5 130801488#7 130801488#8 130801488#9 -207728319#3 -207728319#2 12182441 -119438058#0 -207728320 -207728318#2 -12182447#2"/>
    </vehicle>
    <vehicle id="80" depart="80.00">
        <route edges="181422641#3 7917431#1 7917431#2 128930534#0 207908670#3 207908670#5 207908670#7 207908670#8 207908670#9 207908670#10 207728319#0 124327152 124327153 -207728319#0"/>
    </vehicle>
    <vehicle id="81" depart="81.00">
        <route edges="-7395441 180814145#4 180814145#5 180814145#6 60412902#6 7345531#0 7345531#1 7345531#2 7345531#3 7345531#4 7652725 128932869#0 128932869#1 219406890#0 219406890#1 126471497#0 126471497#1 126471497#2 126471497#4 126471497#5 126471497#6 126471497#7 126471497#8 126471497#9 126471497#10 126471497#11"/>
    </vehicle>
    <vehicle id="82" depart="82.00">
        <route edges="-7345562 174044130#2 7345536#2 7345536#3 7345536#4 7345531#2 7345531#3 7345531#4 7653574#0 7653574#1 7653574#2 209183482#0 128932870 -19897787#5 -19897787#4 -19897787#3 -19897787#2 19897790 7655230#1"/>
    </vehicle>
    <vehicle id="84" depart="84.00">
        <route edges="180814145#0 180814145#1 180814145#2 180814145#3 180814145#4 180814145#5 180814145#6 60412902#6 7345531#0 7345531#1 7345531#2 7345531#3 7345531#4 7652725 128932869#0 128932869#1 219406890#0 219406890#1 126471497#0 126471497#1 126471497#2 126471497#4 126471497#5 7917431#1 7917431#2 128930534#0 207908670#3 207908670#5 207908670#7 207908670#8 207908670#9"/>
    </vehicle>
    <vehicle id="85" depart="85.00">
        <route edges="207728319#5 207728319#7 171797500 -130096032#0 -119438058#7 -119438058#6 -119438058#5 -119438058#4 -119438058#3 -119438058#2 -119438058#1"/>
    </vehicle>
    <vehicle id="87" depart="87.00">
        <route edges="19897790 7655230#1 7655230#2 209183482#0 209183482#1 209183482#2 209183487#0 209183487#1 209183487#2 8080867 181422641#0 -156378607#1 -156378607#0"/>
    </vehicle>
    <vehicle id="88" depart="88.00">
        <route edges="128930534#0 128922240#0 128930529#1 128930533 -7917431#2 -7917431#1 126471497#6"/>
    </vehicle>
    <vehicle id="89" depart="89.00">
        <route edges="174044130#1 174044130#2 7345536#2 7345536#3 7345536#4 7345531#2 19899042#0 19899042#1 19899042#2 -19899041 -33300388 19897770#1"/>
    </vehicle>
    <vehicle id="91" depart="91.00">
        <route edges="-138231959#0 -8100169#2 -33582222 33582223 4325633#0 4325633#1 4325633#2 4325632#0 4325632#1 60412902#5 60412902#6 7345531#0 7345531#1 7345531#2 19899042#0 19899042#1 31893976 31893967#0"/>
    </vehicle>
    <vehicle id="92" depart="92.00">
        <route edges="122317544#1 122317544#2 122317544#3 -130801488#4 -130801488#3 -130801488#2 -130801488#1 -130801488#0 128932870 -19897787#5 -19897787#4 -19897787#3"/>
    </vehicle>
    <vehicle id="93" depart="93.00">
        <route edges="128930533 128930534#0 207908670#3 207908670#5 207908670#7 207908670#8 12182447#0 12182447#1 -29205083 29205082#1 29205082#2 29205082#3"/>
    </vehicle>
    <vehicle id="94" depart="94.00">
        <route edges="19901610 31893967#1 180814145#5 180814145#6 60412902#6 7345531#0 7345531#1 7345531#2 7345531#3 7345531#4 8100173#0 8100173#1 8100173#2 8100173#3"/>
    </vehicle>
    <vehicle id="95" depart="95.00">
        <route edges="33581452 -130096026#4 -130096026#3 -130096026#2 -130096026#1 -8100173#6 -8100173#5 -8100173#4 -8100173#3 -8100173#2 -8100173#1 -8100173#0 7652725 128932869#0 128932869#1 219406890#0 219406890#1 126471497#0 126471497#1 126471497#2 126471497#4 126471497#5 126471497#6 126471497#7 126471497#8 126471497#9 126471497#10 126471497#11 126471497#12"/>
    </vehicle>
    <vehicle id="96" depart="96.00">
        <route edges="-130801488#9 -130801488#8 -130801488#7 -130801488#5 174044131#0 174044131#1 174044131#2 174044131#3 174044131#4 8100173#4 4325634#9 130096030"/>
    </vehicle>
    <vehicle id="97" depart="97.00">
        <route edges="126471497#4 126471497#5 7917431#1 7917431#2 128930534#0 207908670#3 207908670#5 207908670#7 207908670#8 207908670#9 207908670#10 207728319#0 124327152 124327151#0"/>
    </vehicle>
    <vehicle id="98" depart="98.00">
        <route edges="-8100173#2 -8100173#1 -8100173#0 7652725 128932869#0 128932869#1 219406890#0 219406890#1 7917435#0 7917435#1 -10361810#1 -124327151#1"/>
    </vehicle>
    <vehicle id="99" depart="99.00">
        <route edges="60412902#5 -180814145#6 7395443#0 19901610 31893967#1 180814145#5 180814145#6"/>
    </vehicle>
</routes>
