<?xml version="1.0" ?><!-- generated on 2013-09-12 16:09:49.709038 by $Id: randomTrips.py 12979 2012-11-14 14:42:19Z namdre $ --><trips>
    <trip depart="0.00" from="130801488#0" id="0" to="128931504#2"/>
</trips>