<?xml version="1.0"?>

<!-- generated on Wed Oct 16 18:23:15 2013 by SUMO duarouter Version 0.16.0
<?xml version="1.0" encoding="UTF-8"?>

<configuration xmlns:xsi="http://www.w3.org/2001/XMLSchema-instance" xsi:noNamespaceSchemaLocation="http://sumo.sf.net/xsd/duarouterConfiguration.xsd">

    <input>
        <net-file value="data/map.net.xml"/>
        <trip-files value="data/newmap.trips.xml"/>
    </input>

    <output>
        <output-file value="data/newmap.rou.xml"/>
    </output>

    <processing>
        <ignore-errors value="true"/>
        <repair value="true"/>
    </processing>

</configuration>
-->

<routes xmlns:xsi="http://www.w3.org/2001/XMLSchema-instance" xsi:noNamespaceSchemaLocation="http://sumo.sf.net/xsd/routes_file.xsd">
    <vehicle id="0" depart="0.00">
        <route edges="130801488#0 130801488#1 132967554#1 132967554#2 131817724#0 131817724#1 128931504#0 128931504#1 128931504#2"/>
    </vehicle>
</routes>
