<?xml version="1.0"?>

<!-- generated on Thu Sep 12 18:38:04 2013 by SUMO duarouter Version 0.16.0
<?xml version="1.0" encoding="UTF-8"?>

<configuration xmlns:xsi="http://www.w3.org/2001/XMLSchema-instance" xsi:noNamespaceSchemaLocation="http://sumo.sf.net/xsd/duarouterConfiguration.xsd">

    <input>
        <net-file value="data/map.net.xml"/>
        <trip-files value="data/map.trips.xml"/>
    </input>

    <output>
        <output-file value="data/map.rou.xml"/>
    </output>

    <processing>
        <ignore-errors value="true"/>
        <repair value="true"/>
    </processing>

</configuration>
-->

<routes xmlns:xsi="http://www.w3.org/2001/XMLSchema-instance" xsi:noNamespaceSchemaLocation="http://sumo.sf.net/xsd/routes_file.xsd">
    <vehicle id="0" depart="0.00">
        <route edges="-130801488#7 -130801488#5 -130801488#4 113944613"/>
    </vehicle>
    <vehicle id="1" depart="1.00" color="1,0,1">
        <route edges="18498052 119440078#3 119440078#4 128930529#1 128930533 -7917431#2 -7917431#1 -181422641#3 -181422641#2 -181422641#1 156378607#2 -8080873#0 209183487#2 8080867 181422641#0"/>
    </vehicle>
    <vehicle id="2" depart="2.00" color="1,0,0">
        <route edges="147614715 -23892140#0 33581450#2 119438059#0 119438059#1 29205082#0 29205082#1 29205082#2 29205082#3 174044127#1 174044127#2 25736273 7917436 174044129#0 174044129#1 174044129#2 174044129#3 122320050 122317544#0 122317544#1 122317544#2 122317544#3 174044131#0 174044131#1 174044131#2 128931504#3 128931504#4 128931504#5 171797500 -130096032#0 -119438058#7"/>
    </vehicle>
    <vehicle id="3" depart="3.00">
        <route edges="-119438059#1 -119438059#0 -33581450#2 -23892139 119440078#3 119440078#4 174044127#1 174044127#2 25736273 7917436 174044129#0 174044129#1 174044129#2 174044129#3 122320050 122317544#0 122317544#1 122317544#2 122317544#3 174044131#0 174044131#1 174044131#2 174044131#3 174044131#4 174044130#0 174044130#1 174044130#2 7345536#2 7345536#3 7345550#1"/>
    </vehicle>
    <vehicle id="4" depart="4.00">
        <route edges="-23892140#1 -23892140#0 33581450#2 119438059#0 119438059#1 29205082#0 29205082#1 29205082#2 29205082#3 128930529#1 128930533 -7917431#2 -7917431#1 -181422641#3 -181422641#2 -181422641#1"/>
    </vehicle>
    <vehicle id="5" depart="5.00" color="0,1,0">
        <route edges="7655234#4 7655226#2 7653575#0 7653575#1 7653575#2 126471497#0 126471497#1 126471497#2 126471497#4 126471497#5 7917431#1 7917431#2 128930534#0 128922240#0 174044127#1 174044127#2"/>
    </vehicle>
    <vehicle id="6" depart="6.00">
        <route edges="-207728318#0 29205082#0 29205082#1 29205082#2 29205082#3 174044127#1 174044127#2 25736273 7917436 174044129#0 174044129#1 174044129#2 174044129#3 122320050 122317544#0 122317544#1 122317544#2 122317544#3 174044131#0 174044131#1 174044131#2 174044131#3 174044131#4 174044130#0 174044130#1 174044130#2 7345536#2 7345536#3 7345536#4 7345531#2"/>
    </vehicle>
    <vehicle id="7" depart="7.00">
        <route edges="115974092#0 115974092#1 8080867 181422641#0 181422641#1 181422641#2 181422641#3 7917431#1 7917431#2 128930534#0 -209183483#6 -209183483#5 -209183483#4 18498052"/>
    </vehicle>
    <vehicle id="9" depart="9.00">
        <route edges="8100169#1 -33582222 33582223 -131133582#2 -131133582#0 -207728319#13 -207728319#11"/>
    </vehicle>
</routes>
