<?xml version="1.0"?>

<!-- generated on Thu Oct  3 17:20:47 2013 by SUMO jtrrouter Version 0.16.0
<?xml version="1.0" encoding="UTF-8"?>

<configuration xmlns:xsi="http://www.w3.org/2001/XMLSchema-instance" xsi:noNamespaceSchemaLocation="http://sumo.sf.net/xsd/jtrrouterConfiguration.xsd">

    <input>
        <net-file value="data/RondPoint.net.xml"/>
        <flow-files value="data/RondPoint.flow.xml"/>
    </input>

    <output>
        <output-file value="data/RondPoint.rou.xml"/>
    </output>

    <processing>
        <ignore-errors value="true"/>
        <repair value="true"/>
        <turn-defaults value="50,30,40"/>
    </processing>

</configuration>
-->

<routes xmlns:xsi="http://www.w3.org/2001/XMLSchema-instance" xsi:noNamespaceSchemaLocation="http://sumo.sf.net/xsd/routes_file.xsd">
    <vType id="Vehicle" length="5.00" maxSpeed="70.00">
        <carFollowing-Krauss accel="0.80" decel="4.50" sigma="0.50"/>
    </vType>
    <vehicle id="VehicleFlowEast_0" type="Vehicle" depart="12.00">
        <route edges="-1365 -587 240142917 -439 105490271"/>
    </vehicle>
    <vehicle id="VehicleFlowNorth_0" type="Vehicle" depart="12.00">
        <route edges="28925528 -439 105490271"/>
    </vehicle>
    <vehicle id="VehicleFlowSouth_0" type="Vehicle" depart="12.00">
        <route edges="239331354 240143209 105490279"/>
    </vehicle>
    <vehicle id="VehicleFlowWest_0" type="Vehicle" depart="12.00">
        <route edges="229259796 240118541 -1477 240143209 240143210 -587 105490284"/>
    </vehicle>
    <vehicle id="VehicleFlowEast_1" type="Vehicle" depart="21.00">
        <route edges="-1365 -587 105490284"/>
    </vehicle>
    <vehicle id="VehicleFlowNorth_1" type="Vehicle" depart="21.00">
        <route edges="28925528 -439 -440 240118541 -1477 240143209 105490279"/>
    </vehicle>
    <vehicle id="VehicleFlowSouth_1" type="Vehicle" depart="21.00">
        <route edges="239331354 240143209 240143210 -587 240142917 -439 105490271"/>
    </vehicle>
    <vehicle id="VehicleFlowWest_1" type="Vehicle" depart="21.00">
        <route edges="229259796 240118541 239331353"/>
    </vehicle>
    <vehicle id="VehicleFlowEast_2" type="Vehicle" depart="30.00">
        <route edges="-1365 -587 105490284"/>
    </vehicle>
    <vehicle id="VehicleFlowNorth_2" type="Vehicle" depart="30.00">
        <route edges="28925528 -439 105490271"/>
    </vehicle>
    <vehicle id="VehicleFlowSouth_2" type="Vehicle" depart="30.00">
        <route edges="239331354 240143209 105490279"/>
    </vehicle>
    <vehicle id="VehicleFlowWest_2" type="Vehicle" depart="30.00">
        <route edges="229259796 240118541 239331353"/>
    </vehicle>
    <vehicle id="VehicleFlowEast_3" type="Vehicle" depart="39.00">
        <route edges="-1365 -587 105490284"/>
    </vehicle>
    <vehicle id="VehicleFlowNorth_3" type="Vehicle" depart="39.00">
        <route edges="28925528 -439 -440 240118541 239331353"/>
    </vehicle>
    <vehicle id="VehicleFlowSouth_3" type="Vehicle" depart="39.00">
        <route edges="239331354 240143209 240143210 -587 240142917 -439 -440 240118541 -1477 240143209 240143210 -587 105490284"/>
    </vehicle>
    <vehicle id="VehicleFlowWest_3" type="Vehicle" depart="39.00">
        <route edges="229259796 240118541 -1477 240143209 240143210 -587 240142917 -439 105490271"/>
    </vehicle>
    <vehicle id="VehicleFlowEast_4" type="Vehicle" depart="48.00">
        <route edges="-1365 -587 240142917 -439 105490271"/>
    </vehicle>
    <vehicle id="VehicleFlowNorth_4" type="Vehicle" depart="48.00">
        <route edges="28925528 -439 -440 240118541 239331353"/>
    </vehicle>
    <vehicle id="VehicleFlowSouth_4" type="Vehicle" depart="48.00">
        <route edges="239331354 240143209 240143210 -587 105490284"/>
    </vehicle>
    <vehicle id="VehicleFlowWest_4" type="Vehicle" depart="48.00">
        <route edges="229259796 240118541 239331353"/>
    </vehicle>
    <vehicle id="VehicleFlowEast_5" type="Vehicle" depart="57.00">
        <route edges="-1365 -587 105490284"/>
    </vehicle>
    <vehicle id="VehicleFlowNorth_5" type="Vehicle" depart="57.00">
        <route edges="28925528 -439 105490271"/>
    </vehicle>
    <vehicle id="VehicleFlowSouth_5" type="Vehicle" depart="57.00">
        <route edges="239331354 240143209 105490279"/>
    </vehicle>
    <vehicle id="VehicleFlowWest_5" type="Vehicle" depart="57.00">
        <route edges="229259796 240118541 239331353"/>
    </vehicle>
    <vehicle id="VehicleFlowEast_6" type="Vehicle" depart="66.00">
        <route edges="-1365 -587 240142917 -439 105490271"/>
    </vehicle>
    <vehicle id="VehicleFlowNorth_6" type="Vehicle" depart="66.00">
        <route edges="28925528 -439 -440 240118541 239331353"/>
    </vehicle>
    <vehicle id="VehicleFlowSouth_6" type="Vehicle" depart="66.00">
        <route edges="239331354 240143209 240143210 -587 240142917 -439 105490271"/>
    </vehicle>
    <vehicle id="VehicleFlowWest_6" type="Vehicle" depart="66.00">
        <route edges="229259796 240118541 239331353"/>
    </vehicle>
    <vehicle id="VehicleFlowEast_7" type="Vehicle" depart="75.00">
        <route edges="-1365 -587 240142917 -439 105490271"/>
    </vehicle>
    <vehicle id="VehicleFlowNorth_7" type="Vehicle" depart="75.00">
        <route edges="28925528 -439 105490271"/>
    </vehicle>
    <vehicle id="VehicleFlowSouth_7" type="Vehicle" depart="75.00">
        <route edges="239331354 240143209 105490279"/>
    </vehicle>
    <vehicle id="VehicleFlowWest_7" type="Vehicle" depart="75.00">
        <route edges="229259796 240118541 -1477 240143209 105490279"/>
    </vehicle>
    <vehicle id="VehicleFlowEast_8" type="Vehicle" depart="84.00">
        <route edges="-1365 -587 105490284"/>
    </vehicle>
    <vehicle id="VehicleFlowNorth_8" type="Vehicle" depart="84.00">
        <route edges="28925528 -439 105490271"/>
    </vehicle>
    <vehicle id="VehicleFlowSouth_8" type="Vehicle" depart="84.00">
        <route edges="239331354 240143209 105490279"/>
    </vehicle>
    <vehicle id="VehicleFlowWest_8" type="Vehicle" depart="84.00">
        <route edges="229259796 240118541 239331353"/>
    </vehicle>
    <vehicle id="VehicleFlowEast_9" type="Vehicle" depart="93.00">
        <route edges="-1365 -587 240142917 -439 -440 240118541 -1477 240143209 240143210 -587 240142917 -439 105490271"/>
    </vehicle>
    <vehicle id="VehicleFlowNorth_9" type="Vehicle" depart="93.00">
        <route edges="28925528 -439 -440 240118541 239331353"/>
    </vehicle>
    <vehicle id="VehicleFlowSouth_9" type="Vehicle" depart="93.00">
        <route edges="239331354 240143209 240143210 -587 240142917 -439 105490271"/>
    </vehicle>
    <vehicle id="VehicleFlowWest_9" type="Vehicle" depart="93.00">
        <route edges="229259796 240118541 -1477 240143209 240143210 -587 105490284"/>
    </vehicle>
    <vehicle id="VehicleFlowEast_10" type="Vehicle" depart="102.00">
        <route edges="-1365 -587 105490284"/>
    </vehicle>
    <vehicle id="VehicleFlowNorth_10" type="Vehicle" depart="102.00">
        <route edges="28925528 -439 105490271"/>
    </vehicle>
    <vehicle id="VehicleFlowSouth_10" type="Vehicle" depart="102.00">
        <route edges="239331354 240143209 240143210 -587 105490284"/>
    </vehicle>
    <vehicle id="VehicleFlowWest_10" type="Vehicle" depart="102.00">
        <route edges="229259796 240118541 239331353"/>
    </vehicle>
    <vehicle id="VehicleFlowEast_11" type="Vehicle" depart="111.00">
        <route edges="-1365 -587 240142917 -439 105490271"/>
    </vehicle>
    <vehicle id="VehicleFlowNorth_11" type="Vehicle" depart="111.00">
        <route edges="28925528 -439 105490271"/>
    </vehicle>
    <vehicle id="VehicleFlowSouth_11" type="Vehicle" depart="111.00">
        <route edges="239331354 240143209 240143210 -587 240142917 -439 105490271"/>
    </vehicle>
    <vehicle id="VehicleFlowWest_11" type="Vehicle" depart="111.00">
        <route edges="229259796 240118541 239331353"/>
    </vehicle>
    <vehicle id="VehicleFlowEast_12" type="Vehicle" depart="120.00">
        <route edges="-1365 -587 240142917 -439 105490271"/>
    </vehicle>
    <vehicle id="VehicleFlowNorth_12" type="Vehicle" depart="120.00">
        <route edges="28925528 -439 105490271"/>
    </vehicle>
    <vehicle id="VehicleFlowSouth_12" type="Vehicle" depart="120.00">
        <route edges="239331354 240143209 105490279"/>
    </vehicle>
    <vehicle id="VehicleFlowWest_12" type="Vehicle" depart="120.00">
        <route edges="229259796 240118541 239331353"/>
    </vehicle>
    <vehicle id="VehicleFlowEast_13" type="Vehicle" depart="129.00">
        <route edges="-1365 -587 105490284"/>
    </vehicle>
    <vehicle id="VehicleFlowNorth_13" type="Vehicle" depart="129.00">
        <route edges="28925528 -439 105490271"/>
    </vehicle>
    <vehicle id="VehicleFlowSouth_13" type="Vehicle" depart="129.00">
        <route edges="239331354 240143209 105490279"/>
    </vehicle>
    <vehicle id="VehicleFlowWest_13" type="Vehicle" depart="129.00">
        <route edges="229259796 240118541 -1477 240143209 105490279"/>
    </vehicle>
    <vehicle id="VehicleFlowEast_14" type="Vehicle" depart="138.00">
        <route edges="-1365 -587 240142917 -439 -440 240118541 -1477 240143209 105490279"/>
    </vehicle>
    <vehicle id="VehicleFlowNorth_14" type="Vehicle" depart="138.00">
        <route edges="28925528 -439 105490271"/>
    </vehicle>
    <vehicle id="VehicleFlowSouth_14" type="Vehicle" depart="138.00">
        <route edges="239331354 240143209 240143210 -587 105490284"/>
    </vehicle>
    <vehicle id="VehicleFlowWest_14" type="Vehicle" depart="138.00">
        <route edges="229259796 240118541 239331353"/>
    </vehicle>
    <vehicle id="VehicleFlowEast_15" type="Vehicle" depart="147.00">
        <route edges="-1365 -587 105490284"/>
    </vehicle>
    <vehicle id="VehicleFlowNorth_15" type="Vehicle" depart="147.00">
        <route edges="28925528 -439 -440 240118541 -1477 240143209 240143210 -587 105490284"/>
    </vehicle>
    <vehicle id="VehicleFlowSouth_15" type="Vehicle" depart="147.00">
        <route edges="239331354 240143209 105490279"/>
    </vehicle>
    <vehicle id="VehicleFlowWest_15" type="Vehicle" depart="147.00">
        <route edges="229259796 240118541 239331353"/>
    </vehicle>
    <vehicle id="VehicleFlowEast_16" type="Vehicle" depart="156.00">
        <route edges="-1365 -587 240142917 -439 105490271"/>
    </vehicle>
    <vehicle id="VehicleFlowNorth_16" type="Vehicle" depart="156.00">
        <route edges="28925528 -439 105490271"/>
    </vehicle>
    <vehicle id="VehicleFlowSouth_16" type="Vehicle" depart="156.00">
        <route edges="239331354 240143209 105490279"/>
    </vehicle>
    <vehicle id="VehicleFlowWest_16" type="Vehicle" depart="156.00">
        <route edges="229259796 240118541 239331353"/>
    </vehicle>
    <vehicle id="VehicleFlowEast_17" type="Vehicle" depart="165.00">
        <route edges="-1365 -587 240142917 -439 105490271"/>
    </vehicle>
    <vehicle id="VehicleFlowNorth_17" type="Vehicle" depart="165.00">
        <route edges="28925528 -439 105490271"/>
    </vehicle>
    <vehicle id="VehicleFlowSouth_17" type="Vehicle" depart="165.00">
        <route edges="239331354 240143209 105490279"/>
    </vehicle>
    <vehicle id="VehicleFlowWest_17" type="Vehicle" depart="165.00">
        <route edges="229259796 240118541 239331353"/>
    </vehicle>
    <vehicle id="VehicleFlowEast_18" type="Vehicle" depart="174.00">
        <route edges="-1365 -587 105490284"/>
    </vehicle>
    <vehicle id="VehicleFlowNorth_18" type="Vehicle" depart="174.00">
        <route edges="28925528 -439 105490271"/>
    </vehicle>
    <vehicle id="VehicleFlowSouth_18" type="Vehicle" depart="174.00">
        <route edges="239331354 240143209 105490279"/>
    </vehicle>
    <vehicle id="VehicleFlowWest_18" type="Vehicle" depart="174.00">
        <route edges="229259796 240118541 -1477 240143209 240143210 -587 105490284"/>
    </vehicle>
    <vehicle id="VehicleFlowEast_19" type="Vehicle" depart="183.00">
        <route edges="-1365 -587 240142917 -439 105490271"/>
    </vehicle>
    <vehicle id="VehicleFlowNorth_19" type="Vehicle" depart="183.00">
        <route edges="28925528 -439 -440 240118541 239331353"/>
    </vehicle>
    <vehicle id="VehicleFlowSouth_19" type="Vehicle" depart="183.00">
        <route edges="239331354 240143209 105490279"/>
    </vehicle>
    <vehicle id="VehicleFlowWest_19" type="Vehicle" depart="183.00">
        <route edges="229259796 240118541 239331353"/>
    </vehicle>
    <vehicle id="VehicleFlowEast_20" type="Vehicle" depart="192.00">
        <route edges="-1365 -587 240142917 -439 105490271"/>
    </vehicle>
    <vehicle id="VehicleFlowNorth_20" type="Vehicle" depart="192.00">
        <route edges="28925528 -439 -440 240118541 239331353"/>
    </vehicle>
    <vehicle id="VehicleFlowSouth_20" type="Vehicle" depart="192.00">
        <route edges="239331354 240143209 240143210 -587 240142917 -439 -440 240118541 239331353"/>
    </vehicle>
    <vehicle id="VehicleFlowWest_20" type="Vehicle" depart="192.00">
        <route edges="229259796 240118541 239331353"/>
    </vehicle>
    <vehicle id="VehicleFlowEast_21" type="Vehicle" depart="201.00">
        <route edges="-1365 -587 240142917 -439 105490271"/>
    </vehicle>
    <vehicle id="VehicleFlowNorth_21" type="Vehicle" depart="201.00">
        <route edges="28925528 -439 105490271"/>
    </vehicle>
    <vehicle id="VehicleFlowSouth_21" type="Vehicle" depart="201.00">
        <route edges="239331354 240143209 105490279"/>
    </vehicle>
    <vehicle id="VehicleFlowWest_21" type="Vehicle" depart="201.00">
        <route edges="229259796 240118541 -1477 240143209 240143210 -587 240142917 -439 -440 240118541 239331353"/>
    </vehicle>
    <vehicle id="VehicleFlowEast_22" type="Vehicle" depart="210.00">
        <route edges="-1365 -587 240142917 -439 105490271"/>
    </vehicle>
    <vehicle id="VehicleFlowNorth_22" type="Vehicle" depart="210.00">
        <route edges="28925528 -439 -440 240118541 239331353"/>
    </vehicle>
    <vehicle id="VehicleFlowSouth_22" type="Vehicle" depart="210.00">
        <route edges="239331354 240143209 240143210 -587 105490284"/>
    </vehicle>
    <vehicle id="VehicleFlowWest_22" type="Vehicle" depart="210.00">
        <route edges="229259796 240118541 239331353"/>
    </vehicle>
    <vehicle id="VehicleFlowEast_23" type="Vehicle" depart="219.00">
        <route edges="-1365 -587 105490284"/>
    </vehicle>
    <vehicle id="VehicleFlowNorth_23" type="Vehicle" depart="219.00">
        <route edges="28925528 -439 -440 240118541 239331353"/>
    </vehicle>
    <vehicle id="VehicleFlowSouth_23" type="Vehicle" depart="219.00">
        <route edges="239331354 240143209 240143210 -587 105490284"/>
    </vehicle>
    <vehicle id="VehicleFlowWest_23" type="Vehicle" depart="219.00">
        <route edges="229259796 240118541 239331353"/>
    </vehicle>
    <vehicle id="VehicleFlowEast_24" type="Vehicle" depart="228.00">
        <route edges="-1365 -587 105490284"/>
    </vehicle>
    <vehicle id="VehicleFlowNorth_24" type="Vehicle" depart="228.00">
        <route edges="28925528 -439 105490271"/>
    </vehicle>
    <vehicle id="VehicleFlowSouth_24" type="Vehicle" depart="228.00">
        <route edges="239331354 240143209 105490279"/>
    </vehicle>
    <vehicle id="VehicleFlowWest_24" type="Vehicle" depart="228.00">
        <route edges="229259796 240118541 239331353"/>
    </vehicle>
    <vehicle id="VehicleFlowEast_25" type="Vehicle" depart="237.00">
        <route edges="-1365 -587 105490284"/>
    </vehicle>
    <vehicle id="VehicleFlowNorth_25" type="Vehicle" depart="237.00">
        <route edges="28925528 -439 -440 240118541 -1477 240143209 105490279"/>
    </vehicle>
    <vehicle id="VehicleFlowSouth_25" type="Vehicle" depart="237.00">
        <route edges="239331354 240143209 105490279"/>
    </vehicle>
    <vehicle id="VehicleFlowWest_25" type="Vehicle" depart="237.00">
        <route edges="229259796 240118541 239331353"/>
    </vehicle>
    <vehicle id="VehicleFlowEast_26" type="Vehicle" depart="246.00">
        <route edges="-1365 -587 105490284"/>
    </vehicle>
    <vehicle id="VehicleFlowNorth_26" type="Vehicle" depart="246.00">
        <route edges="28925528 -439 -440 240118541 -1477 240143209 240143210 -587 105490284"/>
    </vehicle>
    <vehicle id="VehicleFlowSouth_26" type="Vehicle" depart="246.00">
        <route edges="239331354 240143209 105490279"/>
    </vehicle>
    <vehicle id="VehicleFlowWest_26" type="Vehicle" depart="246.00">
        <route edges="229259796 240118541 -1477 240143209 105490279"/>
    </vehicle>
    <vehicle id="VehicleFlowEast_27" type="Vehicle" depart="255.00">
        <route edges="-1365 -587 105490284"/>
    </vehicle>
    <vehicle id="VehicleFlowNorth_27" type="Vehicle" depart="255.00">
        <route edges="28925528 -439 105490271"/>
    </vehicle>
    <vehicle id="VehicleFlowSouth_27" type="Vehicle" depart="255.00">
        <route edges="239331354 240143209 240143210 -587 105490284"/>
    </vehicle>
    <vehicle id="VehicleFlowWest_27" type="Vehicle" depart="255.00">
        <route edges="229259796 240118541 239331353"/>
    </vehicle>
    <vehicle id="VehicleFlowEast_28" type="Vehicle" depart="264.00">
        <route edges="-1365 -587 240142917 -439 -440 240118541 239331353"/>
    </vehicle>
    <vehicle id="VehicleFlowNorth_28" type="Vehicle" depart="264.00">
        <route edges="28925528 -439 -440 240118541 239331353"/>
    </vehicle>
    <vehicle id="VehicleFlowSouth_28" type="Vehicle" depart="264.00">
        <route edges="239331354 240143209 105490279"/>
    </vehicle>
    <vehicle id="VehicleFlowWest_28" type="Vehicle" depart="264.00">
        <route edges="229259796 240118541 -1477 240143209 105490279"/>
    </vehicle>
    <vehicle id="VehicleFlowEast_29" type="Vehicle" depart="273.00">
        <route edges="-1365 -587 240142917 -439 105490271"/>
    </vehicle>
    <vehicle id="VehicleFlowNorth_29" type="Vehicle" depart="273.00">
        <route edges="28925528 -439 -440 240118541 239331353"/>
    </vehicle>
    <vehicle id="VehicleFlowSouth_29" type="Vehicle" depart="273.00">
        <route edges="239331354 240143209 105490279"/>
    </vehicle>
    <vehicle id="VehicleFlowWest_29" type="Vehicle" depart="273.00">
        <route edges="229259796 240118541 239331353"/>
    </vehicle>
    <vehicle id="VehicleFlowEast_30" type="Vehicle" depart="282.00">
        <route edges="-1365 -587 105490284"/>
    </vehicle>
    <vehicle id="VehicleFlowNorth_30" type="Vehicle" depart="282.00">
        <route edges="28925528 -439 105490271"/>
    </vehicle>
    <vehicle id="VehicleFlowSouth_30" type="Vehicle" depart="282.00">
        <route edges="239331354 240143209 105490279"/>
    </vehicle>
    <vehicle id="VehicleFlowWest_30" type="Vehicle" depart="282.00">
        <route edges="229259796 240118541 -1477 240143209 105490279"/>
    </vehicle>
    <vehicle id="VehicleFlowEast_31" type="Vehicle" depart="291.00">
        <route edges="-1365 -587 105490284"/>
    </vehicle>
    <vehicle id="VehicleFlowNorth_31" type="Vehicle" depart="291.00">
        <route edges="28925528 -439 -440 240118541 239331353"/>
    </vehicle>
    <vehicle id="VehicleFlowSouth_31" type="Vehicle" depart="291.00">
        <route edges="239331354 240143209 240143210 -587 105490284"/>
    </vehicle>
    <vehicle id="VehicleFlowWest_31" type="Vehicle" depart="291.00">
        <route edges="229259796 240118541 239331353"/>
    </vehicle>
    <vehicle id="VehicleFlowEast_32" type="Vehicle" depart="300.00">
        <route edges="-1365 -587 105490284"/>
    </vehicle>
    <vehicle id="VehicleFlowNorth_32" type="Vehicle" depart="300.00">
        <route edges="28925528 -439 105490271"/>
    </vehicle>
    <vehicle id="VehicleFlowSouth_32" type="Vehicle" depart="300.00">
        <route edges="239331354 240143209 105490279"/>
    </vehicle>
    <vehicle id="VehicleFlowWest_32" type="Vehicle" depart="300.00">
        <route edges="229259796 240118541 239331353"/>
    </vehicle>
    <vehicle id="VehicleFlowEast_33" type="Vehicle" depart="309.00">
        <route edges="-1365 -587 105490284"/>
    </vehicle>
    <vehicle id="VehicleFlowNorth_33" type="Vehicle" depart="309.00">
        <route edges="28925528 -439 -440 240118541 239331353"/>
    </vehicle>
    <vehicle id="VehicleFlowSouth_33" type="Vehicle" depart="309.00">
        <route edges="239331354 240143209 240143210 -587 240142917 -439 105490271"/>
    </vehicle>
    <vehicle id="VehicleFlowWest_33" type="Vehicle" depart="309.00">
        <route edges="229259796 240118541 -1477 240143209 240143210 -587 240142917 -439 105490271"/>
    </vehicle>
    <vehicle id="VehicleFlowEast_34" type="Vehicle" depart="318.00">
        <route edges="-1365 -587 240142917 -439 -440 240118541 -1477 240143209 240143210 -587 240142917 -439 105490271"/>
    </vehicle>
    <vehicle id="VehicleFlowNorth_34" type="Vehicle" depart="318.00">
        <route edges="28925528 -439 -440 240118541 -1477 240143209 240143210 -587 105490284"/>
    </vehicle>
    <vehicle id="VehicleFlowSouth_34" type="Vehicle" depart="318.00">
        <route edges="239331354 240143209 240143210 -587 240142917 -439 105490271"/>
    </vehicle>
    <vehicle id="VehicleFlowWest_34" type="Vehicle" depart="318.00">
        <route edges="229259796 240118541 239331353"/>
    </vehicle>
    <vehicle id="VehicleFlowEast_35" type="Vehicle" depart="327.00">
        <route edges="-1365 -587 105490284"/>
    </vehicle>
    <vehicle id="VehicleFlowNorth_35" type="Vehicle" depart="327.00">
        <route edges="28925528 -439 105490271"/>
    </vehicle>
    <vehicle id="VehicleFlowSouth_35" type="Vehicle" depart="327.00">
        <route edges="239331354 240143209 240143210 -587 105490284"/>
    </vehicle>
    <vehicle id="VehicleFlowWest_35" type="Vehicle" depart="327.00">
        <route edges="229259796 240118541 239331353"/>
    </vehicle>
    <vehicle id="VehicleFlowEast_36" type="Vehicle" depart="336.00">
        <route edges="-1365 -587 240142917 -439 105490271"/>
    </vehicle>
    <vehicle id="VehicleFlowNorth_36" type="Vehicle" depart="336.00">
        <route edges="28925528 -439 105490271"/>
    </vehicle>
    <vehicle id="VehicleFlowSouth_36" type="Vehicle" depart="336.00">
        <route edges="239331354 240143209 240143210 -587 240142917 -439 -440 240118541 239331353"/>
    </vehicle>
    <vehicle id="VehicleFlowWest_36" type="Vehicle" depart="336.00">
        <route edges="229259796 240118541 239331353"/>
    </vehicle>
    <vehicle id="VehicleFlowEast_37" type="Vehicle" depart="345.00">
        <route edges="-1365 -587 240142917 -439 -440 240118541 -1477 240143209 105490279"/>
    </vehicle>
    <vehicle id="VehicleFlowNorth_37" type="Vehicle" depart="345.00">
        <route edges="28925528 -439 -440 240118541 239331353"/>
    </vehicle>
    <vehicle id="VehicleFlowSouth_37" type="Vehicle" depart="345.00">
        <route edges="239331354 240143209 240143210 -587 105490284"/>
    </vehicle>
    <vehicle id="VehicleFlowWest_37" type="Vehicle" depart="345.00">
        <route edges="229259796 240118541 239331353"/>
    </vehicle>
    <vehicle id="VehicleFlowEast_38" type="Vehicle" depart="354.00">
        <route edges="-1365 -587 105490284"/>
    </vehicle>
    <vehicle id="VehicleFlowNorth_38" type="Vehicle" depart="354.00">
        <route edges="28925528 -439 -440 240118541 239331353"/>
    </vehicle>
    <vehicle id="VehicleFlowSouth_38" type="Vehicle" depart="354.00">
        <route edges="239331354 240143209 240143210 -587 240142917 -439 -440 240118541 239331353"/>
    </vehicle>
    <vehicle id="VehicleFlowWest_38" type="Vehicle" depart="354.00">
        <route edges="229259796 240118541 -1477 240143209 105490279"/>
    </vehicle>
    <vehicle id="VehicleFlowEast_39" type="Vehicle" depart="363.00">
        <route edges="-1365 -587 240142917 -439 105490271"/>
    </vehicle>
    <vehicle id="VehicleFlowNorth_39" type="Vehicle" depart="363.00">
        <route edges="28925528 -439 105490271"/>
    </vehicle>
    <vehicle id="VehicleFlowSouth_39" type="Vehicle" depart="363.00">
        <route edges="239331354 240143209 105490279"/>
    </vehicle>
    <vehicle id="VehicleFlowWest_39" type="Vehicle" depart="363.00">
        <route edges="229259796 240118541 -1477 240143209 240143210 -587 105490284"/>
    </vehicle>
    <vehicle id="VehicleFlowEast_40" type="Vehicle" depart="372.00">
        <route edges="-1365 -587 105490284"/>
    </vehicle>
    <vehicle id="VehicleFlowNorth_40" type="Vehicle" depart="372.00">
        <route edges="28925528 -439 105490271"/>
    </vehicle>
    <vehicle id="VehicleFlowSouth_40" type="Vehicle" depart="372.00">
        <route edges="239331354 240143209 240143210 -587 105490284"/>
    </vehicle>
    <vehicle id="VehicleFlowWest_40" type="Vehicle" depart="372.00">
        <route edges="229259796 240118541 239331353"/>
    </vehicle>
    <vehicle id="VehicleFlowEast_41" type="Vehicle" depart="381.00">
        <route edges="-1365 -587 240142917 -439 -440 240118541 239331353"/>
    </vehicle>
    <vehicle id="VehicleFlowNorth_41" type="Vehicle" depart="381.00">
        <route edges="28925528 -439 105490271"/>
    </vehicle>
    <vehicle id="VehicleFlowSouth_41" type="Vehicle" depart="381.00">
        <route edges="239331354 240143209 105490279"/>
    </vehicle>
    <vehicle id="VehicleFlowWest_41" type="Vehicle" depart="381.00">
        <route edges="229259796 240118541 239331353"/>
    </vehicle>
    <vehicle id="VehicleFlowEast_42" type="Vehicle" depart="390.00">
        <route edges="-1365 -587 240142917 -439 -440 240118541 -1477 240143209 240143210 -587 105490284"/>
    </vehicle>
    <vehicle id="VehicleFlowNorth_42" type="Vehicle" depart="390.00">
        <route edges="28925528 -439 105490271"/>
    </vehicle>
    <vehicle id="VehicleFlowSouth_42" type="Vehicle" depart="390.00">
        <route edges="239331354 240143209 105490279"/>
    </vehicle>
    <vehicle id="VehicleFlowWest_42" type="Vehicle" depart="390.00">
        <route edges="229259796 240118541 239331353"/>
    </vehicle>
    <vehicle id="VehicleFlowEast_43" type="Vehicle" depart="399.00">
        <route edges="-1365 -587 105490284"/>
    </vehicle>
    <vehicle id="VehicleFlowNorth_43" type="Vehicle" depart="399.00">
        <route edges="28925528 -439 105490271"/>
    </vehicle>
    <vehicle id="VehicleFlowSouth_43" type="Vehicle" depart="399.00">
        <route edges="239331354 240143209 240143210 -587 105490284"/>
    </vehicle>
    <vehicle id="VehicleFlowWest_43" type="Vehicle" depart="399.00">
        <route edges="229259796 240118541 239331353"/>
    </vehicle>
    <vehicle id="VehicleFlowEast_44" type="Vehicle" depart="408.00">
        <route edges="-1365 -587 105490284"/>
    </vehicle>
    <vehicle id="VehicleFlowNorth_44" type="Vehicle" depart="408.00">
        <route edges="28925528 -439 -440 240118541 239331353"/>
    </vehicle>
    <vehicle id="VehicleFlowSouth_44" type="Vehicle" depart="408.00">
        <route edges="239331354 240143209 105490279"/>
    </vehicle>
    <vehicle id="VehicleFlowWest_44" type="Vehicle" depart="408.00">
        <route edges="229259796 240118541 -1477 240143209 105490279"/>
    </vehicle>
    <vehicle id="VehicleFlowEast_45" type="Vehicle" depart="417.00">
        <route edges="-1365 -587 240142917 -439 105490271"/>
    </vehicle>
    <vehicle id="VehicleFlowNorth_45" type="Vehicle" depart="417.00">
        <route edges="28925528 -439 -440 240118541 239331353"/>
    </vehicle>
    <vehicle id="VehicleFlowSouth_45" type="Vehicle" depart="417.00">
        <route edges="239331354 240143209 105490279"/>
    </vehicle>
    <vehicle id="VehicleFlowWest_45" type="Vehicle" depart="417.00">
        <route edges="229259796 240118541 -1477 240143209 240143210 -587 240142917 -439 -440 240118541 239331353"/>
    </vehicle>
    <vehicle id="VehicleFlowEast_46" type="Vehicle" depart="426.00">
        <route edges="-1365 -587 105490284"/>
    </vehicle>
    <vehicle id="VehicleFlowNorth_46" type="Vehicle" depart="426.00">
        <route edges="28925528 -439 105490271"/>
    </vehicle>
    <vehicle id="VehicleFlowSouth_46" type="Vehicle" depart="426.00">
        <route edges="239331354 240143209 240143210 -587 105490284"/>
    </vehicle>
    <vehicle id="VehicleFlowWest_46" type="Vehicle" depart="426.00">
        <route edges="229259796 240118541 -1477 240143209 240143210 -587 105490284"/>
    </vehicle>
    <vehicle id="VehicleFlowEast_47" type="Vehicle" depart="435.00">
        <route edges="-1365 -587 105490284"/>
    </vehicle>
    <vehicle id="VehicleFlowNorth_47" type="Vehicle" depart="435.00">
        <route edges="28925528 -439 105490271"/>
    </vehicle>
    <vehicle id="VehicleFlowSouth_47" type="Vehicle" depart="435.00">
        <route edges="239331354 240143209 105490279"/>
    </vehicle>
    <vehicle id="VehicleFlowWest_47" type="Vehicle" depart="435.00">
        <route edges="229259796 240118541 -1477 240143209 240143210 -587 240142917 -439 -440 240118541 239331353"/>
    </vehicle>
    <vehicle id="VehicleFlowEast_48" type="Vehicle" depart="444.00">
        <route edges="-1365 -587 105490284"/>
    </vehicle>
    <vehicle id="VehicleFlowNorth_48" type="Vehicle" depart="444.00">
        <route edges="28925528 -439 105490271"/>
    </vehicle>
    <vehicle id="VehicleFlowSouth_48" type="Vehicle" depart="444.00">
        <route edges="239331354 240143209 240143210 -587 240142917 -439 105490271"/>
    </vehicle>
    <vehicle id="VehicleFlowWest_48" type="Vehicle" depart="444.00">
        <route edges="229259796 240118541 -1477 240143209 105490279"/>
    </vehicle>
    <vehicle id="VehicleFlowEast_49" type="Vehicle" depart="453.00">
        <route edges="-1365 -587 105490284"/>
    </vehicle>
    <vehicle id="VehicleFlowNorth_49" type="Vehicle" depart="453.00">
        <route edges="28925528 -439 -440 240118541 -1477 240143209 105490279"/>
    </vehicle>