<?xml version="1.0" encoding="UTF-8"?>

<!-- generated on Wed Oct  2 15:38:05 2013 by SUMO netconvert Version 0.16.0
<?xml version="1.0" encoding="UTF-8"?>

<configuration xmlns:xsi="http://www.w3.org/2001/XMLSchema-instance" xsi:noNamespaceSchemaLocation="http://sumo.sf.net/xsd/netconvertConfiguration.xsd">

    <input>
        <osm-files value="RondPoint2.osm"/>
    </input>

    <output>
        <output-file value="data/rd.net.xml"/>
    </output>

    <projection>
        <proj.utm value="true"/>
    </projection>

    <edge_removal>
        <remove-edges.by-vclass value="bicycle"/>
    </edge_removal>

    <processing>
        <no-turnarounds value="true"/>
    </processing>

</configuration>
-->

<net version="0.13" xmlns:xsi="http://www.w3.org/2001/XMLSchema-instance" xsi:noNamespaceSchemaLocation="http://sumo.sf.net/xsd/net_file.xsd">

    <location netOffset="-460843.46,-5401488.73" convBoundary="0.00,0.00,725.37,311.13" origBoundary="2.467126,48.765217,2.477012,48.767998" projParameter="+proj=utm +zone=31 +ellps=WGS84 +datum=WGS84 +units=m +no_defs"/>

    <edge id=":1214943442_0" function="internal">
        <lane id=":1214943442_0_0" index="0" speed="13.89" length="21.76" shape="327.85,184.38 326.58,181.16 322.99,179.28 317.06,178.72 308.81,179.50"/>
    </edge>
    <edge id=":1214943442_1" function="internal">
        <lane id=":1214943442_1_0" index="0" speed="13.89" length="17.29" shape="327.85,184.38 327.68,179.25 327.71,175.71 328.24,172.24 329.59,167.31"/>
    </edge>
    <edge id=":1214943442_2" function="internal">
        <lane id=":1214943442_2_0" index="0" speed="13.89" length="16.23" shape="331.15,184.29 330.98,179.48 331.00,176.16 331.49,172.90 332.74,168.27"/>
    </edge>
    <edge id=":1214943442_3" function="internal">
        <lane id=":1214943442_3_0" index="0" speed="13.89" length="15.78" shape="334.45,184.21 333.89,179.49 333.23,176.01 333.54,172.89 335.90,169.23"/>
    </edge>
    <edge id=":1214943442_4" function="internal">
        <lane id=":1214943442_4_0" index="0" speed="13.89" length="8.03" shape="334.45,184.21 334.59,179.19 335.19,176.24"/>
    </edge>
    <edge id=":1214943442_13" function="internal">
        <lane id=":1214943442_13_0" index="0" speed="13.89" length="5.24" shape="335.19,176.24 335.32,175.59 336.63,173.42 338.53,172.68"/>
    </edge>
    <edge id=":1214943442_5" function="internal">
        <lane id=":1214943442_5_0" index="0" speed="13.89" length="29.99" shape="338.58,175.98 332.52,176.45 323.68,177.48 314.85,178.64 308.81,179.50"/>
    </edge>
    <edge id=":1214943442_6" function="internal">
        <lane id=":1214943442_6_0" index="0" speed="13.89" length="5.97" shape="338.58,175.98 335.12,175.61 333.52,174.36 333.58,173.90"/>
    </edge>
    <edge id=":1214943442_14" function="internal">
        <lane id=":1214943442_14_0" index="0" speed="13.89" length="5.36" shape="333.58,173.90 333.78,172.23 335.90,169.23"/>
    </edge>
    <edge id=":1214943442_7" function="internal">
        <lane id=":1214943442_7_0" index="0" speed="13.89" length="23.83" shape="308.31,176.24 316.95,174.56 323.38,172.51 327.59,170.10 329.59,167.31"/>
    </edge>
    <edge id=":1214943442_8" function="internal">
        <lane id=":1214943442_8_0" index="0" speed="13.89" length="30.44" shape="308.31,176.24 314.42,175.37 323.40,174.20 332.40,173.16 338.53,172.68"/>
    </edge>
    <edge id=":1214943442_9" function="internal">
        <lane id=":1214943442_9_0" index="0" speed="13.89" length="28.48" shape="310.07,183.00 317.96,179.60 324.30,177.90 329.19,175.06 332.74,168.27"/>
    </edge>
    <edge id=":1214943442_10" function="internal">
        <lane id=":1214943442_10_0" index="0" speed="13.89" length="29.56" shape="311.75,185.83 319.47,181.62 324.90,178.83 329.80,175.40 335.90,169.23"/>
    </edge>
    <edge id=":1214943442_11" function="internal">
        <lane id=":1214943442_11_0" index="0" speed="13.89" length="30.01" shape="311.75,185.83 320.64,180.57 328.08,176.42 334.04,173.69 338.53,172.68"/>
    </edge>
    <edge id=":1214943442_12" function="internal">
        <lane id=":1214943442_12_0" index="0" speed="13.89" length="28.59" shape="313.43,188.66 321.54,183.10 323.47,179.72 319.23,178.52 308.81,179.50"/>
    </edge>
    <edge id=":1214943548_0" function="internal">
        <lane id=":1214943548_0_0" index="0" speed="18.06" length="7.18" shape="353.86,145.86 355.10,147.63 356.41,148.96 357.79,149.84 359.24,150.26"/>
    </edge>
    <edge id=":1214943548_1" function="internal">
        <lane id=":1214943548_1_0" index="0" speed="18.06" length="10.13" shape="351.03,147.56 352.73,149.94 354.59,151.73 356.61,152.93 358.80,153.53"/>
    </edge>
    <edge id=":1214943548_2" function="internal">
        <lane id=":1214943548_2_0" index="0" speed="13.89" length="9.95" shape="349.39,151.59 359.24,150.26"/>
    </edge>
    <edge id=":1214943548_3" function="internal">
        <lane id=":1214943548_3_0" index="0" speed="13.89" length="8.68" shape="350.21,154.79 358.80,153.53"/>
    </edge>
    <edge id=":1214943548_4" function="internal">
        <lane id=":1214943548_4_0" index="0" speed="13.89" length="7.42" shape="351.03,157.99 358.36,156.80"/>
    </edge>
    <edge id=":2479049221_0" function="internal">
        <lane id=":2479049221_0_0" index="0" speed="9.72" length="12.91" shape="401.10,176.72 395.89,176.94 392.20,177.55 390.01,178.55 389.32,179.93"/>
    </edge>
    <edge id=":2479049221_1" function="internal">
        <lane id=":2479049221_1_0" index="0" speed="9.72" length="23.50" shape="401.10,176.72 396.02,176.71 389.34,176.63 382.67,176.49 377.60,176.30"/>
    </edge>
    <edge id=":2479049221_2" function="internal">
        <lane id=":2479049221_2_0" index="0" speed="9.72" length="6.90" shape="399.64,169.61 398.15,171.29 397.89,172.48 398.87,173.19 401.08,173.42"/>
    </edge>
    <edge id=":2479049221_3" function="internal">
        <lane id=":2479049221_3_0" index="0" speed="13.89" length="14.63" shape="399.64,169.61 395.11,173.79 391.88,176.90 389.95,178.95 389.32,179.93"/>
    </edge>
    <edge id=":2479049221_4" function="internal">
        <lane id=":2479049221_4_0" index="0" speed="13.89" length="17.46" shape="397.49,167.11 392.43,171.86 388.84,175.61 386.70,178.35 386.03,180.08"/>
    </edge>
    <edge id=":2479049221_5" function="internal">
        <lane id=":2479049221_5_0" index="0" speed="13.89" length="20.35" shape="395.33,164.60 389.75,169.94 385.79,174.32 383.45,177.75 382.73,180.22"/>
    </edge>
    <edge id=":2479049221_6" function="internal">
        <lane id=":2479049221_6_0" index="0" speed="13.89" length="8.18" shape="393.18,162.10 387.13,167.61"/>
    </edge>
    <edge id=":2479049221_14" function="internal">
        <lane id=":2479049221_14_0" index="0" speed="13.89" length="12.90" shape="387.13,167.61 386.36,168.31 381.48,172.75 378.57,175.41 377.60,176.30"/>
    </edge>
    <edge id=":2479049221_7" function="internal">
        <lane id=":2479049221_7_0" index="0" speed="9.72" length="19.47" shape="384.82,164.54 387.76,168.44 391.45,171.22 395.89,172.88 401.08,173.42"/>
    </edge>
    <edge id=":2479049221_8" function="internal">
        <lane id=":2479049221_8_0" index="0" speed="13.89" length="16.31" shape="384.82,164.54 387.16,168.75 388.44,171.84 389.03,175.13 389.32,179.93"/>
    </edge>
    <edge id=":2479049221_9" function="internal">
        <lane id=":2479049221_9_0" index="0" speed="13.89" length="15.44" shape="381.63,165.54 383.85,169.54 385.11,172.44 385.73,175.54 386.03,180.08"/>
    </edge>
    <edge id=":2479049221_10" function="internal">
        <lane id=":2479049221_10_0" index="0" speed="13.89" length="14.76" shape="378.42,166.56 380.94,170.05 382.13,172.80 382.55,175.85 382.73,180.22"/>
    </edge>
    <edge id=":2479049221_11" function="internal">
        <lane id=":2479049221_11_0" index="0" speed="13.89" length="7.63" shape="378.42,166.56 381.45,171.02 382.05,173.17"/>
    </edge>
    <edge id=":2479049221_15" function="internal">
        <lane id=":2479049221_15_0" index="0" speed="13.89" length="6.64" shape="382.05,173.17 382.32,174.13 381.04,175.89 377.60,176.30"/>
    </edge>
    <edge id=":2479049221_12" function="internal">
        <lane id=":2479049221_12_0" index="0" speed="9.72" length="23.30" shape="377.79,173.01 382.83,173.20 389.44,173.33 396.04,173.41 401.08,173.42"/>
    </edge>
    <edge id=":2479049221_13" function="internal">
        <lane id=":2479049221_13_0" index="0" speed="13.89" length="2.63" shape="377.79,173.01 379.84,173.56 380.22,173.91"/>
    </edge>
    <edge id=":2479049221_16" function="internal">
        <lane id=":2479049221_16_0" index="0" speed="13.89" length="7.04" shape="380.22,173.91 381.34,174.95 382.31,177.17 382.73,180.22"/>
    </edge>
    <edge id=":2479387657_0" function="internal">
        <lane id=":2479387657_0_0" index="0" speed="13.89" length="6.79" shape="336.23,203.18 335.16,202.45 333.72,202.06 331.91,201.99 329.73,202.26"/>
    </edge>
    <edge id=":2479387657_1" function="internal">
        <lane id=":2479387657_1_0" index="0" speed="13.89" length="8.45" shape="336.23,203.18 334.07,201.18 332.16,199.83 330.52,199.10 329.15,199.01"/>
    </edge>
    <edge id=":2479387657_2" function="internal">
        <lane id=":2479387657_2_0" index="0" speed="13.89" length="9.47" shape="338.57,200.85 331.05,195.09"/>
    </edge>
    <edge id=":2479387657_3" function="internal">
        <lane id=":2479387657_3_0" index="0" speed="13.89" length="8.54" shape="340.91,198.52 333.97,193.55"/>
    </edge>
    <edge id=":2479387657_4" function="internal">
        <lane id=":2479387657_4_0" index="0" speed="13.89" length="7.66" shape="340.91,198.52 336.88,192.00"/>
    </edge>
    <edge id=":431399420_0" function="internal">
        <lane id=":431399420_0_0" index="0" speed="18.06" length="5.94" shape="335.31,159.97 336.21,158.66 336.66,157.31 336.66,155.91 336.20,154.46"/>
    </edge>
    <edge id=":431399420_1" function="internal">
        <lane id=":431399420_1_0" index="0" speed="13.89" length="6.80" shape="335.31,159.97 340.45,155.52"/>
    </edge>
    <edge id=":431399420_2" function="internal">
        <lane id=":431399420_2_0" index="0" speed="13.89" length="6.14" shape="337.77,162.16 342.43,158.15"/>
    </edge>
    <edge id=":431399420_3" function="internal">
        <lane id=":431399420_3_0" index="0" speed="13.89" length="5.48" shape="340.24,164.35 344.42,160.79"/>
    </edge>
    <edge id=":431399475_0" function="internal">
        <lane id=":431399475_0_0" index="0" speed="13.89" length="7.15" shape="358.95,215.99 357.68,213.94 356.44,212.43 355.23,211.47 354.06,211.06"/>
    </edge>
    <edge id=":431399475_1" function="internal">
        <lane id=":431399475_1_0" index="0" speed="13.89" length="10.25" shape="361.84,214.39 360.10,211.68 358.29,209.67 356.41,208.37 354.45,207.78"/>
    </edge>
    <edge id=":431399475_2" function="internal">
        <lane id=":431399475_2_0" index="0" speed="13.89" length="9.74" shape="363.76,210.24 354.06,211.06"/>
    </edge>
    <edge id=":431399475_3" function="internal">
        <lane id=":431399475_3_0" index="0" speed="13.89" length="9.00" shape="363.40,206.88 354.45,207.78"/>
    </edge>
    <edge id=":431399475_4" function="internal">
        <lane id=":431399475_4_0" index="0" speed="13.89" length="8.26" shape="363.04,203.53 354.84,204.51"/>
    </edge>
    <edge id=":431399476_0" function="internal">
        <lane id=":431399476_0_0" index="0" speed="13.89" length="7.50" shape="381.24,202.05 379.72,204.09 378.69,205.87 378.18,207.40 378.16,208.68"/>
    </edge>
    <edge id=":431399476_1" function="internal">
        <lane id=":431399476_1_0" index="0" speed="13.89" length="7.81" shape="378.70,199.95 374.38,206.47"/>
    </edge>
    <edge id=":431399476_2" function="internal">
        <lane id=":431399476_2_0" index="0" speed="13.89" length="6.12" shape="376.15,197.86 373.39,203.32"/>
    </edge>
    <edge id=":431399476_3" function="internal">
        <lane id=":431399476_3_0" index="0" speed="13.89" length="4.40" shape="376.15,197.86 372.40,200.17"/>
    </edge>
    <edge id=":431399479_0" function="internal">
        <lane id=":431399479_0_0" index="0" speed="13.89" length="5.28" shape="370.85,152.94 372.10,153.21 373.27,153.00 374.35,152.31 375.35,151.14"/>
    </edge>
    <edge id=":431399479_1" function="internal">
        <lane id=":431399479_1_0" index="0" speed="13.89" length="7.68" shape="370.85,152.94 373.46,153.78 375.53,154.08 377.07,153.82 378.08,153.00"/>
    </edge>
    <edge id=":431399479_2" function="internal">
        <lane id=":431399479_2_0" index="0" speed="13.89" length="9.32" shape="369.66,156.02 378.89,157.31"/>
    </edge>
    <edge id=":431399479_3" function="internal">
        <lane id=":431399479_3_0" index="0" speed="13.89" length="8.62" shape="368.46,159.09 377.03,160.04"/>
    </edge>
    <edge id=":431399479_4" function="internal">
        <lane id=":431399479_4_0" index="0" speed="13.89" length="7.65" shape="368.46,159.09 375.17,162.76"/>
    </edge>

    <edge id="--1277" from="2479049221" to="1519739620" priority="2" type="highway.service" shape="385.81,175.13 408.03,175.05 421.01,174.69 461.43,172.27 503.64,169.20 538.30,166.30 574.52,158.68 616.04,149.07 681.98,134.50 725.37,125.75">
        <lane id="--1277_0" index="0" allow="delivery" speed="5.56" length="328.62" shape="401.08,173.42 408.03,173.40 420.96,173.04 461.33,170.62 503.52,167.56 538.16,164.66 574.18,157.07 615.67,147.47 681.62,132.89 725.04,124.13"/>
    </edge>
    <edge id="-1277" from="1519739620" to="2479049221" priority="2" type="highway.service" shape="725.37,125.75 681.98,134.50 616.04,149.07 574.52,158.68 538.30,166.30 503.64,169.20 461.43,172.27 421.01,174.69 408.03,175.05 385.81,175.13">
        <lane id="-1277_0" index="0" allow="delivery" speed="5.56" length="329.27" shape="725.70,127.37 682.30,136.12 616.40,150.69 574.89,160.29 538.64,167.91 503.78,170.85 461.55,173.91 421.11,176.34 408.08,176.70 401.10,176.72"/>
    </edge>
    <edge id="-1365" from="431399507" to="2479049221" priority="9" type="highway.primary" spreadType="center" shape="707.05,46.20 561.88,96.54 489.87,120.12 465.88,127.98 436.86,140.64 411.90,151.76 393.43,168.57 385.81,175.13">
        <lane id="-1365_0" index="0" speed="13.89" length="334.59" shape="708.67,50.88 563.50,101.21 491.41,124.83 467.42,132.69 438.83,145.17 414.64,155.96 399.64,169.61"/>
        <lane id="-1365_1" index="1" speed="13.89" length="334.59" shape="707.59,47.76 562.42,98.10 490.39,121.69 466.40,129.55 437.52,142.15 412.81,153.16 397.49,167.11"/>
        <lane id="-1365_2" index="2" speed="13.89" length="334.59" shape="706.51,44.64 561.34,94.98 489.36,118.55 465.37,126.41 436.20,139.12 410.98,150.36 395.33,164.60"/>
         
    </edge>
    <edge id="-1477" from="431399420" to="1214943548" priority="9" type="highway.primary" spreadType="center" shape="339.09,160.67 345.17,156.09 356.36,153.20">
        <lane id="-1477_0" index="0" speed="13.89" length="8.63" shape="340.45,155.52 343.71,153.06 349.39,151.59"/>
        <lane id="-1477_1" index="1" speed="13.89" length="8.63" shape="342.43,158.15 345.17,156.09 350.21,154.79"/>
        <lane id="-1477_2" index="2" speed="13.89" length="8.63" shape="344.42,160.79 346.63,159.12 351.03,157.99"/>
    </edge>
    <edge id="-240120119" from="1214943442" to="2479049221" priority="2" type="highway.service" shape="330.89,174.44 342.39,174.27 374.74,174.48 385.81,175.13">
        <lane id="-240120119_0" index="0" allow="delivery" speed="13.89" length="39.26" shape="338.53,172.68 342.36,172.62 374.75,172.83 377.79,173.01"/>
    </edge>
    <edge id="-240120122" from="928458346" to="1214943442" priority="2" type="highway.service" shape="0.00,287.86 129.51,234.60 195.81,207.16 226.90,193.77 261.24,185.13 330.89,174.44">
        <lane id="-240120122_0" index="0" allow="delivery" speed="13.89" length="329.32" shape="-0.63,286.33 128.88,233.07 195.18,205.64 226.24,192.25 260.83,183.53 308.31,176.24"/>
    </edge>
    <edge id="-439" from="431399475" to="2479387657" priority="9" type="highway.primary" spreadType="center" shape="356.41,208.02 349.30,207.17 341.43,203.73 337.00,199.27">
        <lane id="-439_0" index="0" speed="13.89" length="17.84" shape="354.06,211.06 348.42,210.39 339.53,206.50 336.23,203.18"/>
        <lane id="-439_1" index="1" speed="13.89" length="17.84" shape="354.45,207.78 349.30,207.17 341.43,203.73 338.57,200.85"/>
        <lane id="-439_2" index="2" speed="13.89" length="17.84" shape="354.84,204.51 350.18,203.95 343.33,200.95 340.91,198.52"/>
    </edge>
    <edge id="-440" from="2479387657" to="1214943442" priority="9" type="highway.primary" spreadType="center" shape="337.00,199.27 333.72,193.07 331.19,185.68 330.89,174.44">
        <lane id="-440_0" index="0" speed="13.89" length="9.74" shape="331.05,195.09 330.80,194.62 327.90,186.27 327.85,184.38"/>
        <lane id="-440_1" index="1" speed="13.89" length="9.74" shape="333.97,193.55 333.72,193.07 331.19,185.68 331.15,184.29"/>
        <lane id="-440_2" index="2" speed="13.89" length="9.74" shape="336.88,192.00 336.63,191.53 334.47,185.09 334.45,184.21"/>
    </edge>
    <edge id="-587" from="2479049221" to="431399476" priority="9" type="highway.primary" spreadType="center" shape="385.81,175.13 386.33,186.94 383.28,194.38 376.82,202.24">
        <lane id="-587_0" index="0" speed="13.89" length="22.13" shape="389.32,179.93 389.66,187.52 386.15,196.09 381.24,202.05"/>
        <lane id="-587_1" index="1" speed="13.89" length="22.13" shape="386.03,180.08 386.33,186.94 383.28,194.38 378.70,199.95"/>
        <lane id="-587_2" index="2" speed="13.89" length="22.13" shape="382.73,180.22 383.00,186.36 380.42,192.66 376.15,197.86"/>
    </edge>
    <edge id="105490271" from="2479387657" to="317980256" priority="9" type="highway.primary" spreadType="center" shape="337.00,199.27 324.67,201.49 302.94,207.47 127.07,266.74">
        <lane id="105490271_0" index="0" speed="13.89" length="212.97" shape="329.73,202.26 324.96,203.12 303.38,209.06 127.60,268.31"/>
        <lane id="105490271_1" index="1" speed="13.89" length="212.97" shape="329.15,199.01 324.38,199.87 302.51,205.87 126.54,265.18"/>
    </edge>
    <edge id="105490279" from="431399479" to="301266367" priority="5" type="highway.unclassified" spreadType="center" shape="373.11,157.36 380.95,145.87 386.80,137.42 410.65,114.08 445.96,92.95 486.31,73.47 543.06,52.34 622.10,26.65 688.18,0.00">
        <lane id="105490279_0" index="0" speed="13.89" length="352.04" shape="375.35,151.14 379.59,144.94 385.53,136.35 409.63,112.77 445.12,91.53 485.59,71.99 542.49,50.79 621.59,25.08 687.57,-1.53"/>
        <lane id="105490279_1" index="1" speed="13.89" length="352.04" shape="378.08,153.00 382.32,146.80 388.07,138.49 411.66,115.40 446.81,94.36 487.03,74.96 543.64,53.89 622.61,28.22 688.80,1.53"/>
    </edge>
    <edge id="105490284" from="431399476" to="301266318" priority="6" type="highway.tertiary" spreadType="center" shape="376.82,202.24 378.95,212.43 385.00,253.00 399.89,284.96 415.76,309.04">
        <lane id="105490284_0" index="0" speed="13.89" length="108.94" shape="378.16,208.68 378.95,212.43 385.00,253.00 399.89,284.96 415.76,309.04"/>
    </edge>
    <edge id="229259796" from="301264738" to="1214943442" priority="9" type="highway.primary" spreadType="center" shape="123.84,257.25 293.10,195.44 309.96,186.89 330.89,174.44">
        <lane id="229259796_0" index="0" speed="13.89" length="201.18" shape="122.70,254.15 291.97,192.34 308.47,183.94 310.07,183.00"/>
        <lane id="229259796_1" index="1" speed="13.89" length="201.18" shape="123.84,257.25 293.10,195.44 309.96,186.89 311.75,185.83"/>
    </edge>
    <edge id="239331353" from="431399420" to="-1464" priority="5" type="highway.unclassified" spreadType="center" shape="339.09,160.67 332.86,147.29 329.30,138.76 283.87,33.48">
        <lane id="239331353_0" index="0" speed="22.22" length="131.82" shape="336.20,154.46 332.86,147.29 329.30,138.76 283.87,33.48"/>
    </edge>
    <edge id="239331354" from="-1465" to="1214943548" priority="5" type="highway.unclassified" spreadType="center" shape="289.84,30.55 345.52,135.24 350.08,142.78 356.36,153.20">
        <lane id="239331354_0" index="0" speed="22.22" length="131.97" shape="291.30,29.78 346.98,134.47 351.49,141.93 353.86,145.86"/>
        <lane id="239331354_1" index="1" speed="22.22" length="131.97" shape="288.38,31.33 344.07,136.02 348.67,143.64 351.03,147.56"/>
    </edge>
    <edge id="240118541" from="1214943442" to="431399420" priority="9" type="highway.primary" spreadType="center" shape="330.89,174.44 332.95,167.60 339.09,160.67">
        <lane id="240118541_0" index="0" speed="13.89" length="7.98" shape="329.59,167.31 330.00,165.95 335.31,159.97"/>
        <lane id="240118541_1" index="1" speed="13.89" length="7.98" shape="332.74,168.27 332.95,167.60 337.77,162.16"/>
        <lane id="240118541_2" index="2" speed="13.89" length="7.98" shape="335.90,169.23 340.24,164.35"/>
    </edge>
    <edge id="240120119" from="2479049221" to="1214943442" priority="2" type="highway.service" shape="385.81,175.13 374.74,174.48 342.39,174.27 330.89,174.44">
        <lane id="240120119_0" index="0" allow="delivery" speed="13.89" length="39.02" shape="377.60,176.30 374.64,176.13 342.38,175.92 338.58,175.98"/>
    </edge>
    <edge id="240120122" from="1214943442" to="928458346" priority="2" type="highway.service" shape="330.89,174.44 261.24,185.13 226.90,193.77 195.81,207.16 129.51,234.60 0.00,287.86">
        <lane id="240120122_0" index="0" allow="delivery" speed="13.89" length="328.53" shape="308.81,179.50 261.49,186.76 227.30,195.37 196.46,208.68 130.14,236.12 0.63,289.38"/>
    </edge>
    <edge id="240142917" from="431399476" to="431399475" priority="9" type="highway.primary" spreadType="center" shape="376.82,202.24 373.45,203.30 367.12,205.66 361.61,207.47 356.41,208.02">
        <lane id="240142917_0" index="0" speed="13.89" length="10.61" shape="374.38,206.47 368.28,208.75 363.76,210.24"/>
        <lane id="240142917_1" index="1" speed="13.89" length="10.61" shape="373.39,203.32 367.12,205.66 363.40,206.88"/>
        <lane id="240142917_2" index="2" speed="13.89" length="10.61" shape="372.40,200.17 365.96,202.57 363.04,203.53"/>
    </edge>
    <edge id="240143209" from="1214943548" to="431399479" priority="9" type="highway.primary" spreadType="center" shape="356.36,153.20 365.67,154.47 373.11,157.36">
        <lane id="240143209_0" index="0" speed="13.89" length="11.21" shape="359.24,150.26 366.50,151.25 370.85,152.94"/>
        <lane id="240143209_1" index="1" speed="13.89" length="11.21" shape="358.80,153.53 365.67,154.47 369.66,156.02"/>
        <lane id="240143209_2" index="2" speed="13.89" length="11.21" shape="358.36,156.80 364.84,157.68 368.46,159.09"/>
    </edge>
    <edge id="240143210" from="431399479" to="2479049221" priority="9" type="highway.primary" spreadType="center" shape="373.11,157.36 377.91,160.64 381.16,164.70 384.29,170.23 385.81,175.13">
        <lane id="240143210_0" index="0" speed="13.89" length="7.23" shape="378.89,157.31 380.18,158.19 383.73,162.64 384.82,164.54"/>
        <lane id="240143210_1" index="1" speed="13.89" length="7.23" shape="377.03,160.04 377.91,160.64 381.16,164.70 381.63,165.54"/>
        <lane id="240143210_2" index="2" speed="13.89" length="7.23" shape="375.17,162.76 375.64,163.09 378.42,166.56"/>
    </edge>
    <edge id="28925528" from="-1438" to="431399475" priority="6" type="highway.tertiary" spreadType="center" shape="410.20,311.13 395.62,287.30 383.62,269.45 373.55,238.86 356.41,208.02">
        <lane id="28925528_0" index="0" speed="13.89" length="108.73" shape="408.79,312.00 394.21,288.16 382.12,270.18 372.03,239.52 358.95,215.99"/>
        <lane id="28925528_1" index="1" speed="13.89" length="108.73" shape="411.60,310.27 397.03,286.43 385.12,268.72 375.06,238.19 361.84,214.39"/>
    </edge>

    <tlLogic id="1214943442" type="static" programID="0" offset="0">
        <phase duration="31" state="gggggrrrrGGGG"/>
        <phase duration="4" state="gggggrrrryyyy"/>
        <phase duration="6" state="GGGGGrrrrrrrr"/>
        <phase duration="4" state="yyyyyrrrrrrrr"/>
        <phase duration="31" state="rrrrrGgGGrrrr"/>
        <phase duration="4" state="rrrrrygyyrrrr"/>
        <phase duration="6" state="rrrrrrGrrrrrr"/>
        <phase duration="4" state="rrrrrryrrrrrr"/>
    </tlLogic>
    <tlLogic id="1214943548" type="static" programID="0" offset="0">
        <phase duration="31" state="GGrrr"/>
        <phase duration="7" state="yyrrr"/>
        <phase duration="31" state="rrGGG"/>
        <phase duration="7" state="rryyy"/>
    </tlLogic>
    <tlLogic id="2479049221" type="static" programID="0" offset="0">
        <phase duration="31" state="rrGGGGGgggggrr"/>
        <phase duration="4" state="rryyyyygggggrr"/>
        <phase duration="6" state="rrrrrrrGGGGGrr"/>
        <phase duration="4" state="rrrrrrryyyyyrr"/>
        <phase duration="31" state="ggrrrrrrrrrrGG"/>
        <phase duration="4" state="ggrrrrrrrrrryy"/>
        <phase duration="6" state="GGrrrrrrrrrrrr"/>
        <phase duration="4" state="yyrrrrrrrrrrrr"/>
    </tlLogic>
    <tlLogic id="431399475" type="static" programID="0" offset="0">
        <phase duration="31" state="GGrrr"/>
        <phase duration="4" state="yyrrr"/>
        <phase duration="31" state="rrGGG"/>
        <phase duration="4" state="rryyy"/>
    </tlLogic>

    <junction id="-1438" type="unregulated" x="410.20" y="311.13" incLanes="" intLanes="" shape="412.97,309.44 407.42,312.83">
    </junction>
    <junction id="-1464" type="unregulated" x="283.87" y="33.48" incLanes="239331353_0" intLanes="" shape="282.40,34.11 285.34,32.84">
    </junction>
    <junction id="-1465" type="unregulated" x="289.84" y="30.55" incLanes="" intLanes="" shape="286.97,32.08 292.71,29.03">
    </junction>
    <junction id="1214943442" type="traffic_light" x="330.89" y="174.44" incLanes="-440_0 -440_1 -440_2 240120119_0 -240120122_0 229259796_0 229259796_1" intLanes=":1214943442_0_0 :1214943442_1_0 :1214943442_2_0 :1214943442_3_0 :1214943442_13_0 :1214943442_5_0 :1214943442_14_0 :1214943442_7_0 :1214943442_8_0 :1214943442_9_0 :1214943442_10_0 :1214943442_11_0 :1214943442_12_0" shape="326.25,184.42 336.05,184.17 338.61,177.58 338.51,171.08 337.59,169.75 328.06,166.85 308.07,174.66 309.05,181.08 309.25,181.62 314.25,190.03">
        <request index="0" response="1111000000000" foes="1111000100000" cont="0"/>
        <request index="1" response="0111000000000" foes="0111111100000" cont="0"/>
        <request index="2" response="0111000000000" foes="0111111100000" cont="0"/>
        <request index="3" response="0111000000000" foes="0111111100000" cont="0"/>
        <request index="4" response="0100000000000" foes="0100101100000" cont="1"/>
        <request index="5" response="1111000011111" foes="1111000011111" cont="0"/>
        <request index="6" response="0111110011110" foes="0111110011110" cont="1"/>
        <request index="7" response="0011000001110" foes="0011001001110" cont="0"/>
        <request index="8" response="0111000011110" foes="0111001011110" cont="0"/>
        <request index="9" response="0000000000000" foes="0000111101111" cont="0"/>
        <request index="10" response="0000000000000" foes="0000111101111" cont="0"/>
        <request index="11" response="0000000000000" foes="0000101111111" cont="0"/>
        <request index="12" response="0000000000000" foes="0000000100001" cont="0"/>
    </junction>
    <junction id="1214943548" type="traffic_light" x="356.36" y="153.20" incLanes="239331354_0 239331354_1 -1477_0 -1477_1 -1477_2" intLanes=":1214943548_0_0 :1214943548_1_0 :1214943548_2_0 :1214943548_3_0 :1214943548_4_0" shape="358.14,158.39 359.46,148.68 355.23,145.03 349.66,148.39 348.99,150.04 351.43,159.53">
        <request index="0" response="11100" foes="11100" cont="0"/>
        <request index="1" response="11100" foes="11100" cont="0"/>
        <request index="2" response="00000" foes="00011" cont="0"/>
        <request index="3" response="00000" foes="00011" cont="0"/>
        <request index="4" response="00000" foes="00011" cont="0"/>
    </junction>
    <junction id="1519739620" type="dead_end" x="725.37" y="125.75" incLanes="--1277_0" intLanes="" shape="725.38,125.80 726.01,128.93 724.73,122.56 725.36,125.70"/>
    <junction id="2479049221" type="traffic_light" x="385.81" y="175.13" incLanes="-1277_0 -1365_0 -1365_1 -1365_2 240143210_0 240143210_1 240143210_2 -240120119_0" intLanes=":2479049221_0_0 :2479049221_1_0 :2479049221_2_0 :2479049221_3_0 :2479049221_4_0 :2479049221_5_0 :2479049221_14_0 :2479049221_7_0 :2479049221_8_0 :2479049221_9_0 :2479049221_10_0 :2479049221_15_0 :2479049221_12_0 :2479049221_16_0" shape="381.13,180.29 390.92,179.86 401.10,178.32 401.08,171.82 400.69,170.82 392.14,160.89 386.39,164.05 376.78,167.07 377.89,171.41 377.50,177.90">
        <request index="0" response="10000000111000" foes="10011100111000" cont="0"/>
        <request index="1" response="10000001111000" foes="10111101111000" cont="0"/>
        <request index="2" response="00000000000000" foes="01000010000000" cont="0"/>
        <request index="3" response="00000000000000" foes="11011110000011" cont="0"/>
        <request index="4" response="00000000000000" foes="11011110000011" cont="0"/>
        <request index="5" response="00000000000000" foes="11011110000011" cont="0"/>
        <request index="6" response="00000000000000" foes="11111110000010" cont="1"/>
        <request index="7" response="01000001111100" foes="01000001111100" cont="0"/>
        <request index="8" response="11000001111011" foes="11000001111011" cont="0"/>
        <request index="9" response="11000001111011" foes="11000001111011" cont="0"/>
        <request index="10" response="11000001111011" foes="11000001111011" cont="0"/>
        <request index="11" response="11000001000010" foes="11000001000010" cont="1"/>