<?xml version="1.0"?>

<!-- generated on Wed Oct 16 17:41:12 2013 by SUMO duarouter Version 0.16.0
<?xml version="1.0" encoding="UTF-8"?>

<configuration xmlns:xsi="http://www.w3.org/2001/XMLSchema-instance" xsi:noNamespaceSchemaLocation="http://sumo.sf.net/xsd/duarouterConfiguration.xsd">

    <input>
        <net-file value="data/RondPoint.net.xml"/>
        <flow-files value="data/RondPoint.flow.xml"/>
    </input>

    <output>
        <output-file value="data/RondPoint.rou.xml"/>
    </output>

    <processing>
        <ignore-errors value="true"/>
        <repair value="true"/>
    </processing>

</configuration>
-->

<routes xmlns:xsi="http://www.w3.org/2001/XMLSchema-instance" xsi:noNamespaceSchemaLocation="http://sumo.sf.net/xsd/routes_file.xsd">
    <vType id="Vehicle" length="5.00" maxSpeed="70.00">
        <carFollowing-Krauss accel="0.80" decel="4.50" sigma="0.50"/>
    </vType>
    <vehicle id="VehicleFlowEastToNorth_0" type="Vehicle" depart="0.00">
        <route edges="-1365 -587 105490284"/>
    </vehicle>
    <vehicle id="VehicleFlowNorthToWest_0" type="Vehicle" depart="0.00">
        <route edges="28925528 -439 105490271"/>
    </vehicle>
    <vehicle id="VehicleFlowSouthToEast_0" type="Vehicle" depart="0.00">
        <route edges="239331354 240143209 105490279"/>
    </vehicle>
    <vehicle id="VehicleFlowWestToSouth_0" type="Vehicle" depart="0.00">
        <route edges="229259796 240118541 239331353"/>
    </vehicle>
    <vehicle id="VehicleFlowEastToWest_0" type="Vehicle" depart="2.00">
        <route edges="-1365 -587 240142917 -439 105490271"/>
    </vehicle>
    <vehicle id="VehicleFlowNorthToSouth_0" type="Vehicle" depart="2.00">
        <route edges="28925528 -439 -440 240118541 239331353"/>
    </vehicle>
    <vehicle id="VehicleFlowSouthToNorth_0" type="Vehicle" depart="2.00">
        <route edges="239331354 240143209 240143210 -587 105490284"/>
    </vehicle>
    <vehicle id="VehicleFlowWestToEast_0" type="Vehicle" depart="2.00">
        <route edges="229259796 240118541 -1477 240143209 105490279"/>
    </vehicle>
    <vehicle id="VehicleFlowEastToSouth_0" type="Vehicle" depart="4.00">
        <route edges="-1365 -587 240142917 -439 -440 240118541 239331353"/>
    </vehicle>
    <vehicle id="VehicleFlowNorthToEast_0" type="Vehicle" depart="4.00">
        <route edges="28925528 -439 -440 240118541 -1477 240143209 105490279"/>
    </vehicle>
    <vehicle id="VehicleFlowSouthToWest_0" type="Vehicle" depart="4.00">
        <route edges="239331354 240143209 240143210 -587 240142917 -439 105490271"/>
    </vehicle>
    <vehicle id="VehicleFlowWestToNorth_0" type="Vehicle" depart="4.00">
        <route edges="229259796 240118541 -1477 240143209 240143210 -587 105490284"/>
    </vehicle>
    <vehicle id="VehicleFlowWestToEast_1" type="Vehicle" depart="7.00">
        <route edges="229259796 240118541 -1477 240143209 105490279"/>
    </vehicle>
    <vehicle id="VehicleFlowEastToWest_1" type="Vehicle" depart="10.00">
        <route edges="-1365 -587 240142917 -439 105490271"/>
    </vehicle>
    <vehicle id="VehicleFlowWestToEast_2" type="Vehicle" depart="12.00">
        <route edges="229259796 240118541 -1477 240143209 105490279"/>
    </vehicle>
    <vehicle id="VehicleFlowWestToEast_3" type="Vehicle" depart="17.00">
        <route edges="229259796 240118541 -1477 240143209 105490279"/>
    </vehicle>
    <vehicle id="VehicleFlowEastToWest_2" type="Vehicle" depart="19.00">
        <route edges="-1365 -587 240142917 -439 105490271"/>
    </vehicle>
    <vehicle id="VehicleFlowEastToNorth_1" type="Vehicle" depart="21.00">
        <route edges="-1365 -587 105490284"/>
    </vehicle>
    <vehicle id="VehicleFlowWestToNorth_1" type="Vehicle" depart="21.00">
        <route edges="229259796 240118541 -1477 240143209 240143210 -587 105490284"/>
    </vehicle>
    <vehicle id="VehicleFlowWestToEast_4" type="Vehicle" depart="22.00">
        <route edges="229259796 240118541 -1477 240143209 105490279"/>
    </vehicle>
    <vehicle id="VehicleFlowNorthToWest_1" type="Vehicle" depart="26.00">
        <route edges="28925528 -439 105490271"/>
    </vehicle>
    <vehicle id="VehicleFlowWestToEast_5" type="Vehicle" depart="26.00">
        <route edges="229259796 240118541 -1477 240143209 105490279"/>
    </vehicle>
    <vehicle id="VehicleFlowEastToWest_3" type="Vehicle" depart="27.00">
        <route edges="-1365 -587 240142917 -439 105490271"/>
    </vehicle>
    <vehicle id="VehicleFlowWestToEast_6" type="Vehicle" depart="31.00">
        <route edges="229259796 240118541 -1477 240143209 105490279"/>
    </vehicle>
    <vehicle id="VehicleFlowEastToSouth_1" type="Vehicle" depart="34.00">
        <route edges="-1365 -587 240142917 -439 -440 240118541 239331353"/>
    </vehicle>
    <vehicle id="VehicleFlowWestToSouth_1" type="Vehicle" depart="34.00">
        <route edges="229259796 240118541 239331353"/>
    </vehicle>
    <vehicle id="VehicleFlowEastToWest_4" type="Vehicle" depart="36.00">
        <route edges="-1365 -587 240142917 -439 105490271"/>
    </vehicle>
    <vehicle id="VehicleFlowWestToEast_7" type="Vehicle" depart="36.00">
        <route edges="229259796 240118541 -1477 240143209 105490279"/>
    </vehicle>
    <vehicle id="VehicleFlowWestToNorth_2" type="Vehicle" depart="38.00">
        <route edges="229259796 240118541 -1477 240143209 240143210 -587 105490284"/>
    </vehicle>
    <vehicle id="VehicleFlowWestToEast_8" type="Vehicle" depart="41.00">
        <route edges="229259796 240118541 -1477 240143209 105490279"/>
    </vehicle>
    <vehicle id="VehicleFlowEastToNorth_2" type="Vehicle" depart="42.00">
        <route edges="-1365 -587 105490284"/>
    </vehicle>
    <vehicle id="VehicleFlowEastToWest_5" type="Vehicle" depart="44.00">
        <route edges="-1365 -587 240142917 -439 105490271"/>
    </vehicle>
    <vehicle id="VehicleFlowWestToEast_9" type="Vehicle" depart="46.00">
        <route edges="229259796 240118541 -1477 240143209 105490279"/>
    </vehicle>
    <vehicle id="VehicleFlowNorthToEast_1" type="Vehicle" depart="47.00">
        <route edges="28925528 -439 -440 240118541 -1477 240143209 105490279"/>
    </vehicle>
    <vehicle id="VehicleFlowNorthToWest_2" type="Vehicle" depart="51.00">
        <route edges="28925528 -439 105490271"/>
    </vehicle>
    <vehicle id="VehicleFlowSouthToEast_1" type="Vehicle" depart="51.00">
        <route edges="239331354 240143209 105490279"/>
    </vehicle>
    <vehicle id="VehicleFlowWestToEast_10" type="Vehicle" depart="51.00">
        <route edges="229259796 240118541 -1477 240143209 105490279"/>
    </vehicle>
    <vehicle id="VehicleFlowEastToWest_6" type="Vehicle" depart="52.00">
        <route edges="-1365 -587 240142917 -439 105490271"/>
    </vehicle>
    <vehicle id="VehicleFlowWestToNorth_3" type="Vehicle" depart="55.00">
        <route edges="229259796 240118541 -1477 240143209 240143210 -587 105490284"/>
    </vehicle>
    <vehicle id="VehicleFlowWestToEast_11" type="Vehicle" depart="56.00">
        <route edges="229259796 240118541 -1477 240143209 105490279"/>
    </vehicle>
    <vehicle id="VehicleFlowEastToWest_7" type="Vehicle" depart="61.00">
        <route edges="-1365 -587 240142917 -439 105490271"/>
    </vehicle>
    <vehicle id="VehicleFlowWestToEast_12" type="Vehicle" depart="61.00">
        <route edges="229259796 240118541 -1477 240143209 105490279"/>
    </vehicle>
    <vehicle id="VehicleFlowEastToNorth_3" type="Vehicle" depart="63.00">
        <route edges="-1365 -587 105490284"/>
    </vehicle>
    <vehicle id="VehicleFlowEastToSouth_2" type="Vehicle" depart="64.00">
        <route edges="-1365 -587 240142917 -439 -440 240118541 239331353"/>
    </vehicle>
    <vehicle id="VehicleFlowWestToEast_13" type="Vehicle" depart="66.00">
        <route edges="229259796 240118541 -1477 240143209 105490279"/>
    </vehicle>
    <vehicle id="VehicleFlowNorthToSouth_1" type="Vehicle" depart="67.00">
        <route edges="28925528 -439 -440 240118541 239331353"/>
    </vehicle>
    <vehicle id="VehicleFlowEastToWest_8" type="Vehicle" depart="69.00">
        <route edges="-1365 -587 240142917 -439 105490271"/>
    </vehicle>
    <vehicle id="VehicleFlowWestToSouth_2" type="Vehicle" depart="69.00">
        <route edges="229259796 240118541 239331353"/>
    </vehicle>
    <vehicle id="VehicleFlowWestToEast_14" type="Vehicle" depart="71.00">
        <route edges="229259796 240118541 -1477 240143209 105490279"/>
    </vehicle>
    <vehicle id="VehicleFlowWestToNorth_4" type="Vehicle" depart="72.00">
        <route edges="229259796 240118541 -1477 240143209 240143210 -587 105490284"/>
    </vehicle>
    <vehicle id="VehicleFlowWestToEast_15" type="Vehicle" depart="75.00">
        <route edges="229259796 240118541 -1477 240143209 105490279"/>
    </vehicle>
    <vehicle id="VehicleFlowNorthToWest_3" type="Vehicle" depart="77.00">
        <route edges="28925528 -439 105490271"/>
    </vehicle>
    <vehicle id="VehicleFlowEastToWest_9" type="Vehicle" depart="78.00">
        <route edges="-1365 -587 240142917 -439 105490271"/>
    </vehicle>
    <vehicle id="VehicleFlowWestToEast_16" type="Vehicle" depart="80.00">
        <route edges="229259796 240118541 -1477 240143209 105490279"/>
    </vehicle>
    <vehicle id="VehicleFlowEastToNorth_4" type="Vehicle" depart="84.00">
        <route edges="-1365 -587 105490284"/>
    </vehicle>
    <vehicle id="VehicleFlowWestToEast_17" type="Vehicle" depart="85.00">
        <route edges="229259796 240118541 -1477 240143209 105490279"/>
    </vehicle>
    <vehicle id="VehicleFlowEastToWest_10" type="Vehicle" depart="86.00">
        <route edges="-1365 -587 240142917 -439 105490271"/>
    </vehicle>
    <vehicle id="VehicleFlowNorthToEast_2" type="Vehicle" depart="90.00">
        <route edges="28925528 -439 -440 240118541 -1477 240143209 105490279"/>
    </vehicle>
    <vehicle id="VehicleFlowWestToEast_18" type="Vehicle" depart="90.00">
        <route edges="229259796 240118541 -1477 240143209 105490279"/>
    </vehicle>
    <vehicle id="VehicleFlowWestToNorth_5" type="Vehicle" depart="90.00">
        <route edges="229259796 240118541 -1477 240143209 240143210 -587 105490284"/>
    </vehicle>
    <vehicle id="VehicleFlowEastToSouth_3" type="Vehicle" depart="94.00">
        <route edges="-1365 -587 240142917 -439 -440 240118541 239331353"/>
    </vehicle>
    <vehicle id="VehicleFlowEastToWest_11" type="Vehicle" depart="94.00">
        <route edges="-1365 -587 240142917 -439 105490271"/>
    </vehicle>
    <vehicle id="VehicleFlowWestToEast_19" type="Vehicle" depart="95.00">
        <route edges="229259796 240118541 -1477 240143209 105490279"/>
    </vehicle>
    <vehicle id="VehicleFlowWestToEast_20" type="Vehicle" depart="100.00">
        <route edges="229259796 240118541 -1477 240143209 105490279"/>
    </vehicle>
    <vehicle id="VehicleFlowEastToWest_12" type="Vehicle" depart="103.00">
        <route edges="-1365 -587 240142917 -439 105490271"/>
    </vehicle>
    <vehicle id="VehicleFlowNorthToWest_4" type="Vehicle" depart="103.00">
        <route edges="28925528 -439 105490271"/>
    </vehicle>
    <vehicle id="VehicleFlowSouthToEast_2" type="Vehicle" depart="103.00">
        <route edges="239331354 240143209 105490279"/>
    </vehicle>
    <vehicle id="VehicleFlowWestToSouth_3" type="Vehicle" depart="103.00">
        <route edges="229259796 240118541 239331353"/>
    </vehicle>
    <vehicle id="VehicleFlowEastToNorth_5" type="Vehicle" depart="105.00">
        <route edges="-1365 -587 105490284"/>
    </vehicle>
    <vehicle id="VehicleFlowWestToEast_21" type="Vehicle" depart="105.00">
        <route edges="229259796 240118541 -1477 240143209 105490279"/>
    </vehicle>
    <vehicle id="VehicleFlowWestToNorth_6" type="Vehicle" depart="107.00">
        <route edges="229259796 240118541 -1477 240143209 240143210 -587 105490284"/>
    </vehicle>
    <vehicle id="VehicleFlowWestToEast_22" type="Vehicle" depart="110.00">
        <route edges="229259796 240118541 -1477 240143209 105490279"/>
    </vehicle>
    <vehicle id="VehicleFlowEastToWest_13" type="Vehicle" depart="111.00">
        <route edges="-1365 -587 240142917 -439 105490271"/>
    </vehicle>
    <vehicle id="VehicleFlowWestToEast_23" type="Vehicle" depart="115.00">
        <route edges="229259796 240118541 -1477 240143209 105490279"/>
    </vehicle>
    <vehicle id="VehicleFlowWestToEast_24" type="Vehicle" depart="119.00">
        <route edges="229259796 240118541 -1477 240143209 105490279"/>
    </vehicle>
    <vehicle id="VehicleFlowEastToWest_14" type="Vehicle" depart="120.00">
        <route edges="-1365 -587 240142917 -439 105490271"/>
    </vehicle>
    <vehicle id="VehicleFlowSouthToNorth_1" type="Vehicle" depart="122.00">
        <route edges="239331354 240143209 240143210 -587 105490284"/>
    </vehicle>
    <vehicle id="VehicleFlowEastToSouth_4" type="Vehicle" depart="124.00">
        <route edges="-1365 -587 240142917 -439 -440 240118541 239331353"/>
    </vehicle>
    <vehicle id="VehicleFlowSouthToWest_1" type="Vehicle" depart="124.00">
        <route edges="239331354 240143209 240143210 -587 240142917 -439 105490271"/>
    </vehicle>
    <vehicle id="VehicleFlowWestToEast_25" type="Vehicle" depart="124.00">
        <route edges="229259796 240118541 -1477 240143209 105490279"/>
    </vehicle>
    <vehicle id="VehicleFlowWestToNorth_7" type="Vehicle" depart="124.00">
        <route edges="229259796 240118541 -1477 240143209 240143210 -587 105490284"/>
    </vehicle>
    <vehicle id="VehicleFlowEastToNorth_6" type="Vehicle" depart="126.00">
        <route edges="-1365 -587 105490284"/>
    </vehicle>
    <vehicle id="VehicleFlowEastToWest_15" type="Vehicle" depart="128.00">
        <route edges="-1365 -587 240142917 -439 105490271"/>
    </vehicle>
    <vehicle id="VehicleFlowNorthToWest_5" type="Vehicle" depart="129.00">
        <route edges="28925528 -439 105490271"/>
    </vehicle>
    <vehicle id="VehicleFlowWestToEast_26" type="Vehicle" depart="129.00">
        <route edges="229259796 240118541 -1477 240143209 105490279"/>
    </vehicle>
    <vehicle id="VehicleFlowNorthToEast_3" type="Vehicle" depart="132.00">
        <route edges="28925528 -439 -440 240118541 -1477 240143209 105490279"/>
    </vehicle>
    <vehicle id="VehicleFlowNorthToSouth_2" type="Vehicle" depart="133.00">
        <route edges="28925528 -439 -440 240118541 239331353"/>
    </vehicle>
    <vehicle id="VehicleFlowWestToEast_27" type="Vehicle" depart="134.00">
        <route edges="229259796 240118541 -1477 240143209 105490279"/>
    </vehicle>
    <vehicle id="VehicleFlowEastToWest_16" type="Vehicle" depart="137.00">
        <route edges="-1365 -587 240142917 -439 105490271"/>
    </vehicle>
    <vehicle id="VehicleFlowWestToSouth_4" type="Vehicle" depart="137.00">
        <route edges="229259796 240118541 239331353"/>
    </vehicle>
    <vehicle id="VehicleFlowWestToEast_28" type="Vehicle" depart="139.00">
        <route edges="229259796 240118541 -1477 240143209 105490279"/>
    </vehicle>
    <vehicle id="VehicleFlowWestToNorth_8" type="Vehicle" depart="141.00">
        <route edges="229259796 240118541 -1477 240143209 240143210 -587 105490284"/>
    </vehicle>
    <vehicle id="VehicleFlowWestToEast_29" type="Vehicle" depart="144.00">
        <route edges="229259796 240118541 -1477 240143209 105490279"/>
    </vehicle>
    <vehicle id="VehicleFlowEastToWest_17" type="Vehicle" depart="145.00">
        <route edges="-1365 -587 240142917 -439 105490271"/>
    </vehicle>
    <vehicle id="VehicleFlowEastToNorth_7" type="Vehicle" depart="147.00">
        <route edges="-1365 -587 105490284"/>
    </vehicle>
    <vehicle id="VehicleFlowWestToEast_30" type="Vehicle" depart="149.00">
        <route edges="229259796 240118541 -1477 240143209 105490279"/>
    </vehicle>
    <vehicle id="VehicleFlowEastToWest_18" type="Vehicle" depart="153.00">
        <route edges="-1365 -587 240142917 -439 105490271"/>
    </vehicle>
    <vehicle id="VehicleFlowEastToSouth_5" type="Vehicle" depart="154.00">
        <route edges="-1365 -587 240142917 -439 -440 240118541 239331353"/>
    </vehicle>
    <vehicle id="VehicleFlowNorthToWest_6" type="Vehicle" depart="154.00">
        <route edges="28925528 -439 105490271"/>
    </vehicle>
    <vehicle id="VehicleFlowSouthToEast_3" type="Vehicle" depart="154.00">
        <route edges="239331354 240143209 105490279"/>
    </vehicle>
    <vehicle id="VehicleFlowWestToEast_31" type="Vehicle" depart="154.00">
        <route edges="229259796 240118541 -1477 240143209 105490279"/>
    </vehicle>
    <vehicle id="VehicleFlowWestToNorth_9" type="Vehicle" depart="158.00">
        <route edges="229259796 240118541 -1477 240143209 240143210 -587 105490284"/>
    </vehicle>
    <vehicle id="VehicleFlowWestToEast_32" type="Vehicle" depart="159.00">
        <route edges="229259796 240118541 -1477 240143209 105490279"/>
    </vehicle>
    <vehicle id="VehicleFlowEastToWest_19" type="Vehicle" depart="162.00">
        <route edges="-1365 -587 240142917 -439 105490271"/>
    </vehicle>
    <vehicle id="VehicleFlowWestToEast_33" type="Vehicle" depart="164.00">
        <route edges="229259796 240118541 -1477 240143209 105490279"/>
    </vehicle>
    <vehicle id="VehicleFlowEastToNorth_8" type="Vehicle" depart="167.00">
        <route edges="-1365 -587 105490284"/>
    </vehicle>
    <vehicle id="VehicleFlowWestToEast_34" type="Vehicle" depart="168.00">
        <route edges="229259796 240118541 -1477 240143209 105490279"/>
    </vehicle>
    <vehicle id="VehicleFlowEastToWest_20" type="Vehicle" depart="170.00">
        <route edges="-1365 -587 240142917 -439 105490271"/>
    </vehicle>
    <vehicle id="VehicleFlowWestToSouth_5" type="Vehicle" depart="171.00">
        <route edges="229259796 240118541 239331353"/>
    </vehicle>
    <vehicle id="VehicleFlowWestToEast_35" type="Vehicle" depart="173.00">
        <route edges="229259796 240118541 -1477 240143209 105490279"/>
    </vehicle>
    <vehicle id="VehicleFlowNorthToEast_4" type="Vehicle" depart="175.00">
        <route edges="28925528 -439 -440 240118541 -1477 240143209 105490279"/>
    </vehicle>
    <vehicle id="VehicleFlowWestToNorth_10" type="Vehicle" depart="175.00">
        <route edges="229259796 240118541 -1477 240143209 240143210 -587 105490284"/>
    </vehicle>
    <vehicle id="VehicleFlowWestToEast_36" type="Vehicle" depart="178.00">
        <route edges="229259796 240118541 -1477 240143209 105490279"/>
    </vehicle>
    <vehicle id="VehicleFlowEastToWest_21" type="Vehicle" depart="179.00">
        <route edges="-1365 -587 240142917 -439 105490271"/>
    </vehicle>
    <vehicle id="VehicleFlowNorthToWest_7" type="Vehicle" depart="180.00">
        <route edges="28925528 -439 105490271"/>
    </vehicle>
    <vehicle id="VehicleFlowWestToEast_37" type="Vehicle" depart="183.00">
        <route edges="229259796 240118541 -1477 240143209 105490279"/>
    </vehicle>
    <vehicle id="VehicleFlowEastToSouth_6" type="Vehicle" depart="184.00">
        <route edges="-1365 -587 240142917 -439 -440 240118541 239331353"/>
    </vehicle>
    <vehicle id="VehicleFlowEastToWest_22" type="Vehicle" depart="187.00">
        <route edges="-1365 -587 240142917 -439 105490271"/>
    </vehicle>
    <vehicle id="VehicleFlowEastToNorth_9" type="Vehicle" depart="188.00">
        <route edges="-1365 -587 105490284"/>
    </vehicle>
    <vehicle id="VehicleFlowWestToEast_38" type="Vehicle" depart="188.00">
        <route edges="229259796 240118541 -1477 240143209 105490279"/>
    </vehicle>
    <vehicle id="VehicleFlowWestToNorth_11" type="Vehicle" depart="192.00">
        <route edges="229259796 240118541 -1477 240143209 240143210 -587 105490284"/>
    </vehicle>
    <vehicle id="VehicleFlowWestToEast_39" type="Vehicle" depart="193.00">
        <route edges="229259796 240118541 -1477 240143209 105490279"/>
    </vehicle>
    <vehicle id="VehicleFlowEastToWest_23" type="Vehicle" depart="195.00">
        <route edges="-1365 -587 240142917 -439 105490271"/>
    </vehicle>
    <vehicle id="VehicleFlowNorthToSouth_3" type="Vehicle" depart="198.00">
        <route edges="28925528 -439 -440 240118541 239331353"/>
    </vehicle>
    <vehicle id="VehicleFlowWestToEast_40" type="Vehicle" depart="198.00">
        <route edges="229259796 240118541 -1477 240143209 105490279"/>
    </vehicle>
    <vehicle id="VehicleFlowWestToEast_41" type="Vehicle" depart="203.00">
        <route edges="229259796 240118541 -1477 240143209 105490279"/>
    </vehicle>
    <vehicle id="VehicleFlowEastToWest_24" type="Vehicle" depart="204.00">
        <route edges="-1365 -587 240142917 -439 105490271"/>
    </vehicle>
    <vehicle id="VehicleFlowNorthToWest_8" type="Vehicle" depart="206.00">
        <route edges="28925528 -439 105490271"/>
    </vehicle>
    <vehicle id="VehicleFlowSouthToEast_4" type="Vehicle" depart="206.00">
        <route edges="239331354 240143209 105490279"/>
    </vehicle>
    <vehicle id="VehicleFlowWestToSouth_6" type="Vehicle" depart="206.00">
        <route edges="229259796 240118541 239331353"/>
    </vehicle>
    <vehicle id="VehicleFlowWestToEast_42" type="Vehicle" depart="208.00">
        <route edges="229259796 240118541 -1477 240143209 105490279"/>
    </vehicle>
    <vehicle id="VehicleFlowEastToNorth_10" type="Vehicle" depart="209.00">
        <route edges="-1365 -587 105490284"/>
    </vehicle>
    <vehicle id="VehicleFlowWestToNorth_12" type="Vehicle" depart="209.00">
        <route edges="229259796 240118541 -1477 240143209 240143210 -587 105490284"/>
    </vehicle>
    <vehicle id="VehicleFlowEastToWest_25" type="Vehicle" depart="212.00">
        <route edges="-1365 -587 240142917 -439 105490271"/>
    </vehicle>
    <vehicle id="VehicleFlowWestToEast_43" type="Vehicle" depart="212.00">
        <route edges="229259796 240118541 -1477 240143209 105490279"/>
    </vehicle>
    <vehicle id="VehicleFlowEastToSouth_7" type="Vehicle" depart="214.00">
        <route edges="-1365 -587 240142917 -439 -440 240118541 239331353"/>
    </vehicle>
    <vehicle id="VehicleFlowWestToEast_44" type="Vehicle" depart="217.00">
        <route edges="229259796 240118541 -1477 240143209 105490279"/>
    </vehicle>
    <vehicle id="VehicleFlowNorthToEast_5" type="Vehicle" depart="218.00">
        <route edges="28925528 -439 -440 240118541 -1477 240143209 105490279"/>
    </vehicle>
    <vehicle id="VehicleFlowEastToWest_26" type="Vehicle" depart="221.00">
        <route edges="-1365 -587 240142917 -439 105490271"/>
    </vehicle>
    <vehicle id="VehicleFlowWestToEast_45" type="Vehicle" depart="222.00">
        <route edges="229259796 240118541 -1477 240143209 105490279"/>
    </vehicle>
    <vehicle id="VehicleFlowWestToEast_46" type="Vehicle" depart="227.00">
        <route edges="229259796 240118541 -1477 240143209 105490279"/>
    </vehicle>
    <vehicle id="VehicleFlowWestToNorth_13" type="Vehicle" depart="227.00">
        <route edges="229259796 240118541 -1477 240143209 240143210 -587 105490284"/>
    </vehicle>
    <vehicle id="VehicleFlowEastToWest_27" type="Vehicle" depart="229.00">
        <route edges="-1365 -587 240142917 -439 105490271"/>
    </vehicle>
    <vehicle id="VehicleFlowEastToNorth_11" type="Vehicle" depart="230.00">
        <route edges="-1365 -587 105490284"/>
    </vehicle>
    <vehicle id="VehicleFlowNorthToWest_9" type="Vehicle" depart="231.00">
        <route edges="28925528 -439 105490271"/>
    </vehicle>
    <vehicle id="VehicleFlowWestToEast_47" type="Vehicle" depart="232.00">
        <route edges="229259796 240118541 -1477 240143209 105490279"/>
    </vehicle>
    <vehicle id="VehicleFlowEastToWest_28" type="Vehicle" depart="237.00">
        <route edges="-1365 -587 240142917 -439 105490271"/>
    </vehicle>
    <vehicle id="VehicleFlowWestToEast_48" type="Vehicle" depart="237.00">
        <route edges="229259796 240118541 -1477 240143209 105490279"/>
    </vehicle>
    <vehicle id="VehicleFlowWestToSouth_7" type="Vehicle" depart="240.00">
        <route edges="229259796 240118541 239331353"/>
    </vehicle>
    <vehicle id="VehicleFlowSouthToNorth_2" type="Vehicle" depart="242.00">
        <route edges="239331354 240143209 240143210 -587 105490284"/>
    </vehicle>
    <vehicle id="VehicleFlowWestToEast_49" type="Vehicle" depart="242.00">
        <route edges="229259796 240118541 -1477 240143209 105490279"/>
    </vehicle>
    <vehicle id="VehicleFlowEastToSouth_8" type="Vehicle" depart="244.00">
        <route edges="-1365 -587 240142917 -439 -440 240118541 239331353"/>
    </vehicle>
    <vehicle id="VehicleFlowSouthToWest_2" type="Vehicle" depart="244.00">
        <route edges="239331354 240143209 240143210 -587 240142917 -439 105490271"/>
    </vehicle>
    <vehicle id="VehicleFlowWestToNorth_14" type="Vehicle" depart="244.00">
        <route edges="229259796 240118541 -1477 240143209 240143210 -587 105490284"/>
    </vehicle>
    <vehicle id="VehicleFlowEastToWest_29" type="Vehicle" depart="246.00">
        <route edges="-1365 -587 240142917 -439 105490271"/>
    </vehicle>
    <vehicle id="VehicleFlowWestToEast_50" type="Vehicle" depart="247.00">
        <route edges="229259796 240118541 -1477 240143209 105490279"/>
    </vehicle>
    <vehicle id="VehicleFlowEastToNorth_12" type="Vehicle" depart="251.00">
        <route edges="-1365 -587 105490284"/>
    </vehicle>
    <vehicle id="VehicleFlowWestToEast_51" type="Vehicle" depart="252.00">
        <route edges="229259796 240118541 -1477 240143209 105490279"/>
    </vehicle>
    <vehicle id="VehicleFlowEastToWest_30" type="Vehicle" depart="254.00">
        <route edges="-1365 -587 240142917 -439 105490271"/>
    </vehicle>
    <vehicle id="VehicleFlowNorthToWest_10" type="Vehicle" depart="257.00">
        <route edges="28925528 -439 105490271"/>
    </vehicle>
    <vehicle id="VehicleFlowSouthToEast_5" type="Vehicle" depart="257.00">
        <route edges="239331354 240143209 105490279"/>
    </vehicle>
    <vehicle id="VehicleFlowWestToEast_52" type="Vehicle" depart="257.00">
        <route edges="229259796 240118541 -1477 240143209 105490279"/>
    </vehicle>
    <vehicle id="VehicleFlowNorthToEast_6" type="Vehicle" depart="261.00">
        <route edges="28925528 -439 -440 240118541 -1477 240143209 105490279"/>
    </vehicle>
    <vehicle id="VehicleFlowWestToEast_53" type="Vehicle" depart="261.00">
        <route edges="229259796 240118541 -1477 240143209 105490279"/>
    </vehicle>
    <vehicle id="VehicleFlowWestToNorth_15" type="Vehicle" depart="261.00">
        <route edges="229259796 240118541 -1477 240143209 240143210 -587 105490284"/>
    </vehicle>
    <vehicle id="VehicleFlowEastToWest_31" type="Vehicle" depart="263.00">
        <route edges="-1365 -587 240142917 -439 105490271"/>
    </vehicle>
    <vehicle id="VehicleFlowNorthToSouth_4" type="Vehicle" depart="264.00">
        <route edges="28925528 -439 -440 240118541 239331353"/>
    </vehicle>
    <vehicle id="VehicleFlowWestToEast_54" type="Vehicle" depart="266.00">
        <route edges="229259796 240118541 -1477 240143209 105490279"/>
    </vehicle>
    <vehicle id="VehicleFlowEastToWest_32" type="Vehicle" depart="271.00">
        <route edges="-1365 -587 240142917 -439 105490271"/>
    </vehicle>
    <vehicle id="VehicleFlowWestToEast_55" type="Vehicle" depart="271.00">
        <route edges="229259796 240118541 -1477 240143209 105490279"/>
    </vehicle>
    <vehicle id="VehicleFlowEastToNorth_13" type="Vehicle" depart="272.00">
        <route edges="-1365 -587 105490284"/>
    </vehicle>
    <vehicle id="VehicleFlowEastToSouth_9" type="Vehicle" depart="274.00">
        <route edges="-1365 -587 240142917 -439 -440 240118541 239331353"/>
    </vehicle>
    <vehicle id="VehicleFlowWestToSouth_8" type="Vehicle" depart="274.00">
        <route edges="229259796 240118541 239331353"/>
    </vehicle>
    <vehicle id="VehicleFlowWestToEast_56" type="Vehicle" depart="276.00">
        <route edges="229259796 240118541 -1477 240143209 105490279"/>
    </vehicle>
    <vehicle id="VehicleFlowWestToNorth_16" type="Vehicle" depart="278.00">
        <route edges="229259796 240118541 -1477 240143209 240143210 -587 105490284"/>
    </vehicle>
    <vehicle id="VehicleFlowEastToWest_33" type="Vehicle" depart="279.00">
        <route edges="-1365 -587 240142917 -439 105490271"/>
    </vehicle>
    <vehicle id="VehicleFlowWestToEast_57" type="Vehicle" depart="281.00">
        <route edges="229259796 240118541 -1477 240143209 105490279"/>
    </vehicle>
    <vehicle id="VehicleFlowNorthToWest_11" type="Vehicle" depart="283.00">
        <route edges="28925528 -439 105490271"/>
    </vehicle>
    <vehicle id="VehicleFlowWestToEast_58" type="Vehicle" depart="286.00">
        <route edges="229259796 240118541 -1477 240143209 105490279"/>
    </vehicle>
    <vehicle id="VehicleFlowEastToWest_34" type="Vehicle" depart="288.00">
        <route edges="-1365 -587 240142917 -439 105490271"/>
    </vehicle>
    <vehicle id="VehicleFlowWestToEast_59" type="Vehicle" depart="291.00">
        <route edges="229259796 240118541 -1477 240143209 105490279"/>
    </vehicle>
    <vehicle id="VehicleFlowEastToNorth_14" type="Vehicle" depart="293.00">
        <route edges="-1365 -587 105490284"/>
    </vehicle>
    <vehicle id="VehicleFlowWestToNorth_17" type="Vehicle" depart="295.00">
        <route edges="229259796 240118541 -1477 240143209 240143210 -587 105490284"/>
    </vehicle>
    <vehicle id="VehicleFlowEastToWest_35" type="Vehicle" depart="296.00">
        <route edges="-1365 -587 240142917 -439 105490271"/>
    </vehicle>
    <vehicle id="VehicleFlowWestToEast_60" type="Vehicle" depart="296.00">
        <route edges="229259796 240118541 -1477 240143209 105490279"/>
    </vehicle>
    <vehicle id="VehicleFlowWestToEast_61" type="Vehicle" depart="301.00">
        <route edges="229259796 240118541 -1477 240143209 105490279"/>
    </vehicle>