<?xml version="1.0" encoding="UTF-8"?>

<!-- generated on Thu Jul 25 16:19:44 2013 by SUMO netconvert Version 0.16.0
<?xml version="1.0" encoding="UTF-8"?>

<configuration xmlns:xsi="http://www.w3.org/2001/XMLSchema-instance" xsi:noNamespaceSchemaLocation="http://sumo.sf.net/xsd/netconvertConfiguration.xsd">

    <input>
        <osm-files value="Lyon.osm"/>
    </input>

    <output>
        <output-file value="map.net.xml"/>
    </output>

    <projection>
        <proj.utm value="true"/>
    </projection>

    <edge_removal>
        <remove-edges.by-vclass value="hov,taxi,bus,delivery,transport,lightrail,cityrail,pedestrian,rail_slow,rail_fast,motorcycle,bicycle"/>
    </edge_removal>

    <processing>
        <no-turnarounds value="true"/>
        <junctions.join value="true"/>
    </processing>

</configuration>
-->

<net version="0.13" xmlns:xsi="http://www.w3.org/2001/XMLSchema-instance" xsi:noNamespaceSchemaLocation="http://sumo.sf.net/xsd/net_file.xsd">

    <location netOffset="-640177.67,-5062834.66" convBoundary="0.00,0.00,6830.05,8389.94" origBoundary="4.803166,45.703464,4.889532,45.780333" projParameter="+proj=utm +zone=31 +ellps=WGS84 +datum=WGS84 +units=m +no_defs"/>

    <edge id=":1010460643_0" function="internal">
        <lane id=":1010460643_0_0" index="0" speed="22.22" length="0.49" shape="3098.84,6182.02 3098.71,6182.49"/>
    </edge>
    <edge id=":1036025267_0" function="internal">
        <lane id=":1036025267_0_0" index="0" speed="8.33" length="0.10" shape="3020.69,5423.60 3020.69,5423.60"/>
    </edge>
    <edge id=":1036842110_0" function="internal">
        <lane id=":1036842110_0_0" index="0" speed="27.78" length="0.10" shape="4003.30,5254.22 4003.30,5254.23"/>
    </edge>
    <edge id=":1036842110_1" function="internal">
        <lane id=":1036842110_1_0" index="0" speed="27.78" length="0.10" shape="4006.58,5254.56 4006.58,5254.55"/>
    </edge>
    <edge id=":1036842184_0" function="internal">
        <lane id=":1036842184_0_0" index="0" speed="22.22" length="5.99" shape="3756.37,5246.65 3757.88,5246.90 3759.00,5246.45 3759.72,5245.29 3760.06,5243.43"/>
    </edge>
    <edge id=":1036842184_1" function="internal">
        <lane id=":1036842184_1_0" index="0" speed="22.22" length="6.92" shape="3756.37,5246.65 3763.26,5247.29"/>
    </edge>
    <edge id=":1036842184_2" function="internal">
        <lane id=":1036842184_2_0" index="0" speed="22.22" length="7.24" shape="3759.37,5250.64 3760.06,5243.43"/>
    </edge>
    <edge id=":1036842184_3" function="internal">
        <lane id=":1036842184_3_0" index="0" speed="22.22" length="4.47" shape="3759.37,5250.64 3759.86,5248.76 3760.67,5247.58 3761.68,5247.14"/>
    </edge>
    <edge id=":1036842184_4" function="internal">
        <lane id=":1036842184_4_0" index="0" speed="22.22" length="1.61" shape="3761.68,5247.14 3761.80,5247.09 3763.26,5247.29"/>
    </edge>
    <edge id=":1036842321_0" function="internal">
        <lane id=":1036842321_0_0" index="0" speed="18.06" length="5.18" shape="3802.43,5874.63 3800.96,5874.66 3799.84,5875.11 3799.07,5875.98 3798.66,5877.26"/>
    </edge>
    <edge id=":1036842321_1" function="internal">
        <lane id=":1036842321_1_0" index="0" speed="18.06" length="5.05" shape="3800.08,5867.88 3800.08,5869.27 3800.53,5870.31 3801.43,5871.00 3802.77,5871.34"/>
    </edge>
    <edge id=":1036842321_2" function="internal">
        <lane id=":1036842321_2_0" index="0" speed="22.22" length="9.49" shape="3800.08,5867.88 3798.66,5877.26"/>
    </edge>
    <edge id=":1036842321_3" function="internal">
        <lane id=":1036842321_3_0" index="0" speed="13.89" length="6.58" shape="3796.26,5872.26 3802.77,5871.34"/>
    </edge>
    <edge id=":1036842321_4" function="internal">
        <lane id=":1036842321_4_0" index="0" speed="18.06" length="6.30" shape="3796.26,5872.26 3797.58,5872.72 3798.43,5873.70 3798.79,5875.22 3798.66,5877.26"/>
    </edge>
    <edge id=":1037076646_0" function="internal">
        <lane id=":1037076646_0_0" index="0" speed="27.78" length="6.20" shape="3220.10,5649.58 3214.49,5652.22"/>
    </edge>
    <edge id=":1037076646_1" function="internal">
        <lane id=":1037076646_1_0" index="0" speed="27.78" length="6.21" shape="3218.71,5646.59 3213.08,5649.24"/>
    </edge>
    <edge id=":1037076646_2" function="internal">
        <lane id=":1037076646_2_0" index="0" speed="20.83" length="5.13" shape="3214.34,5645.04 3214.90,5646.35 3214.88,5647.49 3214.27,5648.45 3213.08,5649.24"/>
    </edge>
    <edge id=":1291379522_0" function="internal">
        <lane id=":1291379522_0_0" index="0" speed="22.22" length="0.10" shape="3568.59,5855.20 3568.59,5855.20"/>
    </edge>
    <edge id=":1291379524_0" function="internal">
        <lane id=":1291379524_0_0" index="0" speed="13.89" length="0.10" shape="3617.17,5857.71 3617.17,5857.71"/>
    </edge>
    <edge id=":1291379525_0" function="internal">
        <lane id=":1291379525_0_0" index="0" speed="22.22" length="5.10" shape="3649.26,5369.36 3647.88,5369.28 3646.81,5369.68 3646.05,5370.55 3645.60,5371.90"/>
    </edge>
    <edge id=":1291379525_1" function="internal">
        <lane id=":1291379525_1_0" index="0" speed="22.22" length="6.36" shape="3649.26,5369.36 3643.02,5368.13"/>
    </edge>
    <edge id=":1291379525_2" function="internal">
        <lane id=":1291379525_2_0" index="0" speed="22.22" length="6.43" shape="3646.53,5365.54 3645.60,5371.90"/>
    </edge>
    <edge id=":1291379525_3" function="internal">
        <lane id=":1291379525_3_0" index="0" speed="22.22" length="5.05" shape="3646.53,5365.54 3646.16,5366.89 3645.45,5367.77 3644.40,5368.19 3643.02,5368.13"/>
    </edge>
    <edge id=":1291379526_0" function="internal">
        <lane id=":1291379526_0_0" index="0" speed="13.89" length="0.10" shape="3614.12,5875.47 3614.12,5875.47"/>
    </edge>
    <edge id=":1351109205_0" function="internal">
        <lane id=":1351109205_0_0" index="0" speed="8.33" length="0.10" shape="3181.30,5774.11 3181.30,5774.11"/>
    </edge>
    <edge id=":1351109208_0" function="internal">
        <lane id=":1351109208_0_0" index="0" speed="8.33" length="0.10" shape="3168.91,5780.82 3168.91,5780.82"/>
    </edge>
    <edge id=":1351109209_0" function="internal">
        <lane id=":1351109209_0_0" index="0" speed="8.33" length="0.10" shape="3219.18,5731.82 3219.20,5731.79"/>
    </edge>
    <edge id=":1351109209_1" function="internal">
        <lane id=":1351109209_1_0" index="0" speed="8.33" length="0.10" shape="3216.44,5729.98 3216.45,5729.97"/>
    </edge>
    <edge id=":1463823521_0" function="internal">
        <lane id=":1463823521_0_0" index="0" speed="13.89" length="9.50" shape="3415.64,5872.30 3414.07,5881.67"/>
    </edge>
    <edge id=":1463823521_1" function="internal">
        <lane id=":1463823521_1_0" index="0" speed="13.89" length="9.50" shape="3412.38,5871.75 3410.82,5881.13"/>
    </edge>
    <edge id=":1463823521_2" function="internal">
        <lane id=":1463823521_2_0" index="0" speed="11.11" length="7.92" shape="3412.38,5871.75 3411.72,5874.50 3410.79,5876.37 3409.60,5877.36 3408.14,5877.49"/>
    </edge>
    <edge id=":1463823521_3" function="internal">
        <lane id=":1463823521_3_0" index="0" speed="11.11" length="7.89" shape="3408.78,5874.25 3410.06,5874.91 3410.83,5876.27 3411.08,5878.34 3410.82,5881.13"/>
    </edge>
    <edge id=":1463826439_0" function="internal">
        <lane id=":1463826439_0_0" index="0" speed="11.11" length="7.17" shape="3227.23,5751.60 3226.14,5750.85 3224.66,5750.65 3222.78,5751.00 3220.51,5751.91"/>
    </edge>
    <edge id=":1463826439_1" function="internal">
        <lane id=":1463826439_1_0" index="0" speed="11.11" length="7.17" shape="3227.23,5751.60 3221.26,5747.63"/>
    </edge>
    <edge id=":1463826439_2" function="internal">
        <lane id=":1463826439_2_0" index="0" speed="8.33" length="4.64" shape="3223.61,5745.31 3224.70,5747.03 3224.54,5748.70 3223.93,5749.41"/>
    </edge>
    <edge id=":1463826439_3" function="internal">
        <lane id=":1463826439_3_0" index="0" speed="8.33" length="4.28" shape="3223.93,5749.41 3223.14,5750.32 3220.51,5751.91"/>
    </edge>
    <edge id=":1463826441_0" function="internal">
        <lane id=":1463826441_0_0" index="0" speed="8.33" length="0.10" shape="3211.28,5756.36 3211.28,5756.36"/>
    </edge>
    <edge id=":1463826444_0" function="internal">
        <lane id=":1463826444_0_0" index="0" speed="15.28" length="5.02" shape="3202.04,5761.56 3201.44,5762.62 3201.23,5763.75 3201.40,5764.97 3201.97,5766.28"/>
    </edge>
    <edge id=":1463826444_1" function="internal">
        <lane id=":1463826444_1_0" index="0" speed="8.33" length="5.55" shape="3202.04,5761.56 3197.75,5765.09"/>
    </edge>
    <edge id=":1465125837_0" function="internal">
        <lane id=":1465125837_0_0" index="0" speed="13.89" length="6.19" shape="3533.13,5570.08 3534.13,5563.97"/>
    </edge>
    <edge id=":1465125837_1" function="internal">
        <lane id=":1465125837_1_0" index="0" speed="18.06" length="5.01" shape="3533.13,5570.08 3533.55,5568.78 3534.28,5567.92 3535.34,5567.50 3536.72,5567.51"/>
    </edge>
    <edge id=":1472877004_0" function="internal">
        <lane id=":1472877004_0_0" index="0" speed="8.33" length="0.10" shape="3142.54,5737.00 3142.54,5737.00"/>
    </edge>
    <edge id=":1489507797_0" function="internal">
        <lane id=":1489507797_0_0" index="0" speed="13.89" length="6.57" shape="3535.48,5709.27 3529.73,5712.44"/>
    </edge>
    <edge id=":1489507797_1" function="internal">
        <lane id=":1489507797_1_0" index="0" speed="13.89" length="5.93" shape="3535.48,5709.27 3534.32,5709.65 3533.01,5709.59 3531.56,5709.09 3529.96,5708.14"/>
    </edge>
    <edge id=":1502685011_0" function="internal">
        <lane id=":1502685011_0_0" index="0" speed="13.89" length="0.10" shape="3509.44,6238.66 3509.44,6238.66"/>
    </edge>
    <edge id=":1502685020_0" function="internal">
        <lane id=":1502685020_0_0" index="0" speed="13.89" length="0.10" shape="3604.07,6250.01 3604.07,6250.02"/>
    </edge>
    <edge id=":15925438_0" function="internal">
        <lane id=":15925438_0_0" index="0" speed="22.22" length="10.26" shape="3705.61,5154.29 3703.92,5151.79 3702.91,5149.93 3702.27,5147.91 3701.69,5144.95"/>
    </edge>
    <edge id=":15925438_1" function="internal">
        <lane id=":15925438_1_0" index="0" speed="25.00" length="5.35" shape="3705.61,5154.29 3704.92,5152.93 3704.92,5151.78 3705.59,5150.85 3706.93,5150.13"/>
    </edge>
    <edge id=":15925438_2" function="internal">
        <lane id=":15925438_2_0" index="0" speed="25.00" length="5.32" shape="3699.67,5149.40 3700.78,5148.70 3701.48,5147.73 3701.79,5146.48 3701.69,5144.95"/>
    </edge>
    <edge id=":15925438_3" function="internal">
        <lane id=":15925438_3_0" index="0" speed="27.78" length="6.59" shape="3699.67,5149.40 3705.82,5147.03"/>
    </edge>
    <edge id=":15925438_4" function="internal">
        <lane id=":15925438_4_0" index="0" speed="27.78" length="6.39" shape="3700.97,5152.43 3706.93,5150.13"/>
    </edge>
    <edge id=":15925446_0" function="internal">
        <lane id=":15925446_0_0" index="0" speed="25.00" length="10.19" shape="3889.50,5336.34 3886.89,5337.79 3884.92,5339.47 3883.59,5341.40 3882.88,5343.56"/>
    </edge>
    <edge id=":15925446_1" function="internal">
        <lane id=":15925446_1_0" index="0" speed="27.78" length="11.03" shape="3889.50,5336.34 3886.52,5337.70 3884.49,5338.64 3882.46,5339.60 3879.51,5341.02"/>
    </edge>
    <edge id=":15925446_2" function="internal">
        <lane id=":15925446_2_0" index="0" speed="27.78" length="11.10" shape="3888.13,5333.33 3885.13,5334.70 3883.09,5335.65 3881.05,5336.62 3878.08,5338.05"/>
    </edge>
    <edge id=":15925446_3" function="internal">
        <lane id=":15925446_3_0" index="0" speed="22.22" length="12.85" shape="3884.67,5330.84 3884.28,5334.23 3883.89,5337.21 3883.44,5340.19 3882.88,5343.56"/>
    </edge>
    <edge id=":15925446_4" function="internal">
        <lane id=":15925446_4_0" index="0" speed="25.00" length="10.18" shape="3884.67,5330.84 3884.08,5332.89 3882.79,5334.77 3880.79,5336.49 3878.08,5338.05"/>
    </edge>
    <edge id=":15925447_0" function="internal">
        <lane id=":15925447_0_0" index="0" speed="27.78" length="8.76" shape="3738.54,5408.64 3730.58,5412.30"/>
    </edge>
    <edge id=":15925447_1" function="internal">
        <lane id=":15925447_1_0" index="0" speed="27.78" length="8.70" shape="3737.13,5405.66 3729.23,5409.29"/>
    </edge>
    <edge id=":15925447_2" function="internal">
        <lane id=":15925447_2_0" index="0" speed="20.83" length="5.07" shape="3737.13,5405.66 3735.79,5406.07 3734.66,5405.94 3733.75,5405.27 3733.04,5404.06"/>
    </edge>
    <edge id=":15925447_3" function="internal">
        <lane id=":15925447_3_0" index="0" speed="20.83" length="5.92" shape="3733.99,5414.84 3734.00,5413.05 3733.44,5412.03 3732.30,5411.78 3730.58,5412.30"/>
    </edge>
    <edge id=":15925447_4" function="internal">
        <lane id=":15925447_4_0" index="0" speed="13.89" length="11.02" shape="3733.99,5414.84 3734.39,5411.72 3734.47,5409.33 3734.07,5407.00 3733.04,5404.06"/>
    </edge>
    <edge id=":15925451_0" function="internal">
        <lane id=":15925451_0_0" index="0" speed="22.22" length="3.25" shape="2861.48,4754.95 2859.83,4752.15"/>
    </edge>
    <edge id=":15925451_1" function="internal">
        <lane id=":15925451_1_0" index="0" speed="18.06" length="3.24" shape="2861.82,4754.70 2859.83,4752.15"/>
    </edge>
    <edge id=":1675987176_0" function="internal">
        <lane id=":1675987176_0_0" index="0" speed="27.78" length="0.10" shape="3450.08,5325.53 3450.08,5325.53"/>
    </edge>
    <edge id=":1675987176_1" function="internal">
        <lane id=":1675987176_1_0" index="0" speed="27.78" length="0.10" shape="3452.41,5327.86 3452.41,5327.86"/>
    </edge>
    <edge id=":18697400_0" function="internal">
        <lane id=":18697400_0_0" index="0" speed="22.22" length="5.19" shape="3686.04,5057.49 3685.58,5056.11 3684.80,5055.28 3683.70,5055.00 3682.27,5055.26"/>
    </edge>
    <edge id=":18697400_1" function="internal">
        <lane id=":18697400_1_0" index="0" speed="22.22" length="10.05" shape="3686.04,5057.49 3685.52,5054.56 3685.15,5052.54 3684.78,5050.53 3684.23,5047.60"/>
    </edge>
    <edge id=":18697400_2" function="internal">
        <lane id=":18697400_2_0" index="0" speed="22.22" length="8.58" shape="3686.04,5057.49 3685.72,5054.54 3685.95,5052.27 3686.71,5050.70 3688.02,5049.80"/>
    </edge>
    <edge id=":18697400_3" function="internal">
        <lane id=":18697400_3_0" index="0" speed="22.22" length="7.22" shape="3689.10,5052.92 3682.27,5055.26"/>
    </edge>
    <edge id=":18697400_4" function="internal">
        <lane id=":18697400_4_0" index="0" speed="22.22" length="4.97" shape="3689.10,5052.92 3687.43,5053.06 3686.06,5052.22 3685.21,5050.77"/>
    </edge>
    <edge id=":18697400_7" function="internal">
        <lane id=":18697400_7_0" index="0" speed="22.22" length="3.32" shape="3685.21,5050.77 3685.00,5050.40 3684.23,5047.60"/>
    </edge>
    <edge id=":18697400_5" function="internal">
        <lane id=":18697400_5_0" index="0" speed="22.22" length="6.03" shape="3681.21,5052.14 3682.76,5051.39 3683.78,5050.39 3684.27,5049.13 3684.23,5047.60"/>
    </edge>
    <edge id=":18697400_6" function="internal">
        <lane id=":18697400_6_0" index="0" speed="22.22" length="7.20" shape="3681.21,5052.14 3688.02,5049.80"/>
    </edge>
    <edge id=":18697415_0" function="internal">
        <lane id=":18697415_0_0" index="0" speed="27.78" length="9.59" shape="3988.60,5012.33 3983.07,5004.49"/>
    </edge>
    <edge id=":18697415_1" function="internal">
        <lane id=":18697415_1_0" index="0" speed="27.78" length="9.75" shape="3991.34,5010.49 3985.72,5002.52"/>
    </edge>
    <edge id=":18697415_2" function="internal">
        <lane id=":18697415_2_0" index="0" speed="27.78" length="5.27" shape="3982.21,5009.07 3983.27,5007.98 3983.77,5006.86 3983.70,5005.69 3983.07,5004.49"/>
    </edge>
    <edge id=":18697415_3" function="internal">
        <lane id=":18697415_3_0" index="0" speed="27.78" length="10.47" shape="3984.26,5011.65 3986.30,5009.54 3987.22,5007.31 3987.03,5004.97 3985.72,5002.52"/>
    </edge>
    <edge id=":1934777993_0" function="internal">
        <lane id=":1934777993_0_0" index="0" speed="13.89" length="0.10" shape="4233.77,5213.53 4233.77,5213.54"/>
    </edge>
    <edge id=":1934777993_1" function="internal">
        <lane id=":1934777993_1_0" index="0" speed="13.89" length="0.10" shape="4236.75,5212.11 4236.75,5212.11"/>
    </edge>
    <edge id=":1934777994_0" function="internal">
        <lane id=":1934777994_0_0" index="0" speed="13.89" length="0.10" shape="4238.65,5223.75 4238.65,5223.75"/>
    </edge>
    <edge id=":1934777994_1" function="internal">
        <lane id=":1934777994_1_0" index="0" speed="13.89" length="0.10" shape="4241.63,5222.33 4241.63,5222.33"/>
    </edge>
    <edge id=":195235_0" function="internal">
        <lane id=":195235_0_0" index="0" speed="13.89" length="9.93" shape="2949.14,5121.63 2944.82,5112.69"/>
    </edge>
    <edge id=":195235_1" function="internal">
        <lane id=":195235_1_0" index="0" speed="20.83" length="9.00" shape="2951.44,5115.76 2949.71,5116.89 2948.03,5116.76 2946.40,5115.36 2944.82,5112.69"/>
    </edge>
    <edge id=":195236_0" function="internal">
        <lane id=":195236_0_0" index="0" speed="18.06" length="5.03" shape="3027.86,5052.68 3026.92,5053.68 3026.53,5054.75 3026.69,5055.88 3027.40,5057.07"/>
    </edge>
    <edge id=":195236_1" function="internal">
        <lane id=":195236_1_0" index="0" speed="27.78" length="6.24" shape="3027.86,5052.68 3023.03,5056.64"/>
    </edge>
    <edge id=":195236_2" function="internal">
        <lane id=":195236_2_0" index="0" speed="27.78" length="6.34" shape="3025.80,5050.10 3020.90,5054.12"/>
    </edge>
    <edge id=":195237_0" function="internal">
        <lane id=":195237_0_0" index="0" speed="20.83" length="5.06" shape="3163.34,4948.87 3162.33,4947.93 3161.26,4947.55 3160.12,4947.72 3158.92,4948.44"/>
    </edge>
    <edge id=":195237_1" function="internal">
        <lane id=":195237_1_0" index="0" speed="13.89" length="9.54" shape="3163.34,4948.87 3157.28,4941.50"/>
    </edge>
    <edge id=":195237_2" function="internal">
        <lane id=":195237_2_0" index="0" speed="27.78" length="6.27" shape="3163.80,4944.50 3158.92,4948.44"/>
    </edge>
    <edge id=":195237_3" function="internal">
        <lane id=":195237_3_0" index="0" speed="27.78" length="6.26" shape="3161.72,4941.94 3156.85,4945.87"/>
    </edge>
    <edge id=":195237_4" function="internal">
        <lane id=":195237_4_0" index="0" speed="20.83" length="5.07" shape="3161.72,4941.94 3160.54,4942.65 3159.40,4942.81 3158.31,4942.43 3157.28,4941.50"/>
    </edge>
    <edge id=":195250_0" function="internal">
        <lane id=":195250_0_0" index="0" speed="25.00" length="5.23" shape="3569.55,5210.66 3570.51,5211.77 3571.55,5212.24 3572.68,5212.05 3573.89,5211.22"/>
    </edge>
    <edge id=":195250_1" function="internal">
        <lane id=":195250_1_0" index="0" speed="22.22" length="9.87" shape="3569.55,5210.66 3575.30,5218.68"/>
    </edge>
    <edge id=":195250_2" function="internal">
        <lane id=":195250_2_0" index="0" speed="27.78" length="6.84" shape="3568.79,5215.77 3573.89,5211.22"/>
    </edge>
    <edge id=":195250_3" function="internal">
        <lane id=":195250_3_0" index="0" speed="27.78" length="6.96" shape="3570.94,5218.28 3576.13,5213.64"/>
    </edge>
    <edge id=":195250_4" function="internal">
        <lane id=":195250_4_0" index="0" speed="25.00" length="5.03" shape="3570.94,5218.28 3572.11,5217.54 3573.22,5217.36 3574.29,5217.74 3575.30,5218.68"/>
    </edge>
    <edge id=":195251_0" function="internal">
        <lane id=":195251_0_0" index="0" speed="22.22" length="13.07" shape="3453.69,5331.86 3450.31,5331.18 3447.29,5330.57 3444.27,5329.95 3440.89,5329.27"/>
    </edge>
    <edge id=":195251_1" function="internal">
        <lane id=":195251_1_0" index="0" speed="25.00" length="5.26" shape="3453.69,5331.86 3451.72,5331.52 3450.21,5331.39 3449.14,5331.46 3448.53,5331.75"/>
    </edge>
    <edge id=":195251_2" function="internal">
        <lane id=":195251_2_0" index="0" speed="25.00" length="6.06" shape="3442.04,5333.33 3443.22,5331.89 3443.42,5330.74 3442.65,5329.86 3440.89,5329.27"/>
    </edge>
    <edge id=":195251_3" function="internal">
        <lane id=":195251_3_0" index="0" speed="27.78" length="5.70" shape="3442.04,5333.33 3446.20,5329.42"/>
    </edge>
    <edge id=":195251_4" function="internal">
        <lane id=":195251_4_0" index="0" speed="27.78" length="5.81" shape="3444.31,5335.73 3448.53,5331.75"/>
    </edge>
    <edge id=":195252_0" function="internal">
        <lane id=":195252_0_0" index="0" speed="22.22" length="11.82" shape="3251.16,5515.63 3248.00,5514.86 3245.40,5514.31 3242.78,5513.87 3239.56,5513.42"/>
    </edge>
    <edge id=":195252_1" function="internal">
        <lane id=":195252_1_0" index="0" speed="25.00" length="5.65" shape="3251.16,5515.63 3249.61,5515.00 3248.87,5514.11 3248.94,5512.95 3249.81,5511.53"/>
    </edge>
    <edge id=":195252_2" function="internal">
        <lane id=":195252_2_0" index="0" speed="25.00" length="5.72" shape="3241.30,5517.35 3242.07,5515.83 3242.04,5514.67 3241.20,5513.87 3239.56,5513.42"/>
    </edge>
    <edge id=":195252_3" function="internal">
        <lane id=":195252_3_0" index="0" speed="27.78" length="9.91" shape="3241.30,5517.35 3247.27,5509.44"/>
    </edge>
    <edge id=":195252_4" function="internal">
        <lane id=":195252_4_0" index="0" speed="27.78" length="9.63" shape="3244.02,5519.22 3249.81,5511.53"/>
    </edge>
    <edge id=":195254_0" function="internal">
        <lane id=":195254_0_0" index="0" speed="20.83" length="10.56" shape="3477.09,5529.19 3475.37,5530.45 3473.95,5532.35 3472.82,5534.88 3471.98,5538.05"/>
    </edge>
    <edge id=":195254_1" function="internal">
        <lane id=":195254_1_0" index="0" speed="27.78" length="12.95" shape="3477.09,5529.19 3473.65,5530.92 3471.29,5532.07 3468.91,5533.19 3465.43,5534.82"/>
    </edge>
    <edge id=":195254_2" function="internal">
        <lane id=":195254_2_0" index="0" speed="27.78" length="12.86" shape="3475.60,5526.25 3472.19,5527.96 3469.85,5529.10 3467.48,5530.22 3464.03,5531.83"/>
    </edge>
    <edge id=":195254_3" function="internal">
        <lane id=":195254_3_0" index="0" speed="20.83" length="13.48" shape="3471.49,5524.73 3472.29,5528.34 3471.53,5530.93 3470.05,5533.59 3468.74,5537.41"/>
    </edge>
    <edge id=":195254_4" function="internal">
        <lane id=":195254_4_0" index="0" speed="27.78" length="8.08" shape="3468.45,5526.00 3468.66,5527.54 3468.00,5529.03 3466.45,5530.46 3464.03,5531.83"/>
    </edge>
    <edge id=":195282_0" function="internal">
        <lane id=":195282_0_0" index="0" speed="27.78" length="0.10" shape="2985.81,5747.83 2985.79,5747.84"/>
    </edge>
    <edge id=":195282_1" function="internal">
        <lane id=":195282_1_0" index="0" speed="27.78" length="0.10" shape="2987.20,5750.83 2987.21,5750.82"/>
    </edge>
    <edge id=":1977891549_0" function="internal">
        <lane id=":1977891549_0_0" index="0" speed="8.33" length="0.10" shape="3018.12,5424.81 3018.12,5424.81"/>
    </edge>
    <edge id=":1977891551_0" function="internal">
        <lane id=":1977891551_0_0" index="0" speed="8.33" length="0.24" shape="3035.97,5463.79 3036.17,5463.67"/>
    </edge>
    <edge id=":1977891553_0" function="internal">
        <lane id=":1977891553_0_0" index="0" speed="8.33" length="0.10" shape="3061.99,5520.01 3061.99,5520.01"/>
    </edge>
    <edge id=":1977891561_0" function="internal">
        <lane id=":1977891561_0_0" index="0" speed="8.33" length="0.10" shape="3093.61,5584.53 3093.61,5584.53"/>
    </edge>
    <edge id=":1977939093_0" function="internal">
        <lane id=":1977939093_0_0" index="0" speed="22.22" length="0.10" shape="3097.38,6185.57 3097.38,6185.57"/>
    </edge>
    <edge id=":1977939099_0" function="internal">
        <lane id=":1977939099_0_0" index="0" speed="13.89" length="0.10" shape="3508.93,6241.46 3508.93,6241.46"/>
    </edge>
    <edge id=":1977939100_0" function="internal">
        <lane id=":1977939100_0_0" index="0" speed="13.89" length="0.10" shape="3603.56,6252.97 3603.56,6252.97"/>
    </edge>
    <edge id=":1987812136_0" function="internal">
        <lane id=":1987812136_0_0" index="0" speed="27.78" length="0.10" shape="3933.22,5316.37 3933.22,5316.37"/>
    </edge>
    <edge id=":1987812136_1" function="internal">
        <lane id=":1987812136_1_0" index="0" speed="27.78" length="0.10" shape="3931.85,5313.37 3931.85,5313.37"/>
    </edge>
    <edge id=":1987823043_0" function="internal">
        <lane id=":1987823043_0_0" index="0" speed="13.89" length="0.10" shape="4226.41,5389.69 4226.41,5389.69"/>
    </edge>
    <edge id=":1987823051_0" function="internal">
        <lane id=":1987823051_0_0" index="0" speed="13.89" length="0.10" shape="4305.86,5404.06 4305.86,5404.06"/>
    </edge>
    <edge id=":1987823056_0" function="internal">
        <lane id=":1987823056_0_0" index="0" speed="13.89" length="0.10" shape="4313.66,5365.87 4313.66,5365.87"/>
    </edge>
    <edge id=":2083923595_0" function="internal">
        <lane id=":2083923595_0_0" index="0" speed="27.78" length="0.10" shape="3493.41,5520.96 3493.45,5520.94"/>
    </edge>
    <edge id=":2083923595_1" function="internal">
        <lane id=":2083923595_1_0" index="0" speed="27.78" length="0.10" shape="3492.00,5517.98 3491.98,5517.98"/>
    </edge>
    <edge id=":2083923598_0" function="internal">
        <lane id=":2083923598_0_0" index="0" speed="27.78" length="0.10" shape="3468.93,5518.61 3468.91,5518.56"/>
    </edge>
    <edge id=":2083923598_1" function="internal">
        <lane id=":2083923598_1_0" index="0" speed="27.78" length="0.10" shape="3465.86,5519.81 3465.86,5519.81"/>
    </edge>
    <edge id=":2083923601_0" function="internal">
        <lane id=":2083923601_0_0" index="0" speed="27.78" length="0.10" shape="3447.94,5543.01 3447.94,5543.01"/>
    </edge>
    <edge id=":2083923601_1" function="internal">
        <lane id=":2083923601_1_0" index="0" speed="27.78" length="0.10" shape="3446.54,5540.02 3446.54,5540.02"/>
    </edge>
    <edge id=":2086402526_0" function="internal">
        <lane id=":2086402526_0_0" index="0" speed="27.78" length="0.10" shape="3176.35,5670.22 3176.35,5670.22"/>
    </edge>
    <edge id=":2086402526_1" function="internal">
        <lane id=":2086402526_1_0" index="0" speed="27.78" length="0.10" shape="3174.95,5667.24 3174.95,5667.24"/>
    </edge>
    <edge id=":2086402540_0" function="internal">
        <lane id=":2086402540_0_0" index="0" speed="27.78" length="0.10" shape="3058.83,5728.54 3058.83,5728.54"/>
    </edge>
    <edge id=":2086402540_1" function="internal">
        <lane id=":2086402540_1_0" index="0" speed="27.78" length="0.10" shape="3057.46,5725.54 3057.47,5725.53"/>
    </edge>
    <edge id=":2086426732_0" function="internal">
        <lane id=":2086426732_0_0" index="0" speed="13.89" length="0.10" shape="3430.01,5787.10 3430.01,5787.10"/>
    </edge>
    <edge id=":2086426732_1" function="internal">
        <lane id=":2086426732_1_0" index="0" speed="13.89" length="0.10" shape="3426.79,5786.39 3426.79,5786.39"/>
    </edge>
    <edge id=":2092840974_0" function="internal">
        <lane id=":2092840974_0_0" index="0" speed="13.89" length="0.30" shape="3427.70,5800.87 3427.66,5801.17"/>
    </edge>
    <edge id=":2092840974_1" function="internal">
        <lane id=":2092840974_1_0" index="0" speed="13.89" length="0.10" shape="3424.42,5800.52 3424.40,5800.62"/>
    </edge>
    <edge id=":2092841226_0" function="internal">
        <lane id=":2092841226_0_0" index="0" speed="13.89" length="0.10" shape="3406.23,5928.94 3406.23,5928.92"/>
    </edge>
    <edge id=":2092841226_1" function="internal">
        <lane id=":2092841226_1_0" index="0" speed="13.89" length="0.10" shape="3402.98,5928.40 3402.98,5928.40"/>
    </edge>
    <edge id=":2092853658_0" function="internal">
        <lane id=":2092853658_0_0" index="0" speed="27.78" length="0.10" shape="3289.14,5458.52 3289.17,5458.49"/>
    </edge>
    <edge id=":2092853658_1" function="internal">
        <lane id=":2092853658_1_0" index="0" speed="27.78" length="0.15" shape="3291.61,5460.71 3291.71,5460.60"/>
    </edge>
    <edge id=":2104502854_0" function="internal">
        <lane id=":2104502854_0_0" index="0" speed="22.22" length="0.10" shape="3153.05,5731.46 3153.05,5731.46"/>
    </edge>
    <edge id=":2104502856_0" function="internal">
        <lane id=":2104502856_0_0" index="0" speed="22.22" length="6.20" shape="3152.64,5735.20 3151.95,5741.37"/>
    </edge>
    <edge id=":2104502856_1" function="internal">
        <lane id=":2104502856_1_0" index="0" speed="15.28" length="5.03" shape="3149.18,5737.90 3150.52,5738.27 3151.43,5738.98 3151.90,5740.01 3151.95,5741.37"/>
    </edge>
    <edge id=":2108795392_0" function="internal">
        <lane id=":2108795392_0_0" index="0" speed="27.78" length="0.10" shape="3349.61,5204.53 3349.62,5204.54"/>
    </edge>
    <edge id=":2108795392_1" function="internal">
        <lane id=":2108795392_1_0" index="0" speed="27.78" length="0.10" shape="3346.52,5205.68 3346.51,5205.64"/>
    </edge>
    <edge id=":2108795393_0" function="internal">
        <lane id=":2108795393_0_0" index="0" speed="27.78" length="0.10" shape="3355.03,5218.72 3355.06,5218.81"/>
    </edge>
    <edge id=":2108795393_1" function="internal">
        <lane id=":2108795393_1_0" index="0" speed="27.78" length="0.10" shape="3352.01,5220.06 3351.98,5219.97"/>
    </edge>
    <edge id=":2108795452_0" function="internal">
        <lane id=":2108795452_0_0" index="0" speed="27.78" length="0.10" shape="3288.64,5045.43 3288.64,5045.42"/>