<?xml version="1.0"?>
<!-- generated on 2013-10-07 14:57:48.899736 by $Id: randomTrips.py 12979 2012-11-14 14:42:19Z namdre $ -->
<trips>
    <trip id="0" depart="0.00" from="-133023681#1" to="4345367#0" />
    <trip id="1" depart="1.00" from="201749676#3" to="-89272701#3" />
    <trip id="2" depart="2.00" from="209062896" to="5073312#0" />
    <trip id="3" depart="3.00" from="89290669#0" to="4306145#2" />
    <trip id="4" depart="4.00" from="4378842#2" to="5074417#0" />
    <trip id="5" depart="5.00" from="4360693#0" to="189649886#2" />
    <trip id="6" depart="6.00" from="220001147#10" to="88457621#6" />
    <trip id="7" depart="7.00" from="4274835#14" to="189800470#3" />
    <trip id="8" depart="8.00" from="4306139#9" to="65092502#7" />
    <trip id="9" depart="9.00" from="157518927#1" to="88457621#3" />
    <trip id="10" depart="10.00" from="133023681#0" to="4325175#1" />
    <trip id="11" depart="11.00" from="113476412#1" to="-189649890#3" />
    <trip id="12" depart="12.00" from="220001147#13" to="5073313" />
    <trip id="13" depart="13.00" from="4378919#0" to="4325176#2" />
    <trip id="14" depart="14.00" from="83800992#5" to="4599555#1" />
    <trip id="15" depart="15.00" from="4306139#6" to="-4325174#0" />
    <trip id="16" depart="16.00" from="4274860#6" to="4170811#4" />
    <trip id="17" depart="17.00" from="192922521#2" to="4325174#0" />
    <trip id="18" depart="18.00" from="133156135" to="189649893#2" />
    <trip id="19" depart="19.00" from="41262183" to="34407231" />
    <trip id="20" depart="20.00" from="-65092498" to="34407231" />
    <trip id="21" depart="21.00" from="4378789#5" to="189649893#1" />
    <trip id="22" depart="22.00" from="4274835#10" to="4324352#3" />
    <trip id="23" depart="23.00" from="58993645#1" to="157518929#4" />
    <trip id="24" depart="24.00" from="210438334#4" to="4324388#1" />
    <trip id="25" depart="25.00" from="4170811#13" to="58993645#3" />
    <trip id="26" depart="26.00" from="5073315#1" to="4274858#6" />
    <trip id="27" depart="27.00" from="133159028#1" to="49680966#0" />
    <trip id="28" depart="28.00" from="211418717#0" to="4274860#4" />
    <trip id="29" depart="29.00" from="4252110" to="49680966#9" />
    <trip id="30" depart="30.00" from="4274858#6" to="133159028#1" />
    <trip id="31" depart="31.00" from="4378890#4" to="4274835#7" />
    <trip id="32" depart="32.00" from="4325175#0" to="4325175#1" />
    <trip id="33" depart="33.00" from="4324352#0" to="-10591247" />
    <trip id="34" depart="34.00" from="4170811#9" to="49680966#3" />
    <trip id="35" depart="35.00" from="157518927#2" to="22701333" />
    <trip id="36" depart="36.00" from="109213554#0" to="25420703" />
    <trip id="37" depart="37.00" from="136975091#2" to="-10591247" />
    <trip id="38" depart="38.00" from="157518929#6" to="4378868#2" />
    <trip id="39" depart="39.00" from="5073315#0" to="121250744#2" />
    <trip id="40" depart="40.00" from="157518927#2" to="-4324355#2" />
    <trip id="41" depart="41.00" from="208005998#0" to="83800992#4" />
    <trip id="42" depart="42.00" from="-89272701#3" to="4378789#3" />
    <trip id="43" depart="43.00" from="210438334#5" to="4324369#1" />
    <trip id="44" depart="44.00" from="4378890#4" to="192922521#1" />
    <trip id="45" depart="45.00" from="60465708#1" to="89388042" />
    <trip id="46" depart="46.00" from="5073312#0" to="85511738#0" />
    <trip id="47" depart="47.00" from="4274835#12" to="4324363#3" />
    <trip id="48" depart="48.00" from="133023681#1" to="5074476" />
    <trip id="49" depart="49.00" from="189649881#0" to="209062897#6" />
    <trip id="50" depart="50.00" from="85511738#0" to="49680966#2" />
    <trip id="51" depart="51.00" from="189649885" to="133157279" />
    <trip id="52" depart="52.00" from="44503646#1" to="4378878" />
    <trip id="53" depart="53.00" from="201749676#3" to="121250742#3" />
    <trip id="54" depart="54.00" from="4985790#3" to="109213554#1" />
    <trip id="55" depart="55.00" from="85511741#2" to="39911870" />
    <trip id="56" depart="56.00" from="121250742#0" to="5073315#2" />
    <trip id="57" depart="57.00" from="157518929#6" to="85511735" />
    <trip id="58" depart="58.00" from="133818200#1" to="175016280#0" />
    <trip id="59" depart="59.00" from="133818200#3" to="4324369#1" />
    <trip id="60" depart="60.00" from="83800992#8" to="4380303#0" />
    <trip id="61" depart="61.00" from="41059977#0" to="5074475" />
    <trip id="62" depart="62.00" from="4378814#0" to="4274835#10" />
    <trip id="63" depart="63.00" from="4170811#16" to="4985790#9" />
    <trip id="64" depart="64.00" from="4274835#13" to="4306145#3" />
    <trip id="65" depart="65.00" from="220001147#6" to="-189649891#2" />
    <trip id="66" depart="66.00" from="59153652#3" to="85511741#1" />
    <trip id="67" depart="67.00" from="4325175#1" to="49680966#9" />
    <trip id="68" depart="68.00" from="4378888#2" to="83800992#7" />
    <trip id="69" depart="69.00" from="4306145#7" to="5073287#2" />
    <trip id="70" depart="70.00" from="209062897#5" to="4274835#6" />
    <trip id="71" depart="71.00" from="89272701#5" to="-4378919#0" />
    <trip id="72" depart="72.00" from="120704302#0" to="109213554#0" />
    <trip id="73" depart="73.00" from="4324356#0" to="109213554#1" />
    <trip id="74" depart="74.00" from="26640660#2" to="208005999#4" />
    <trip id="75" depart="75.00" from="41059977#1" to="65092505" />
    <trip id="76" depart="76.00" from="4378868#1" to="210438334#3" />
    <trip id="77" depart="77.00" from="4324352#1" to="4274835#16" />
    <trip id="78" depart="78.00" from="189649884" to="-4325174#0" />
    <trip id="79" depart="79.00" from="208005999#5" to="121250742#2" />
    <trip id="80" depart="80.00" from="28984214" to="29181007" />
    <trip id="81" depart="81.00" from="4378842#2" to="4378894" />
    <trip id="82" depart="82.00" from="208005998#1" to="4985790#3" />
    <trip id="83" depart="83.00" from="121250742#2" to="5074476" />
    <trip id="84" depart="84.00" from="109213539" to="4306139#6" />
    <trip id="85" depart="85.00" from="89388048" to="58993645#1" />
    <trip id="86" depart="86.00" from="5073315#1" to="4170811#6" />
    <trip id="87" depart="87.00" from="31736005#0" to="208005999#4" />
    <trip id="88" depart="88.00" from="208005999#3" to="5074415" />
    <trip id="89" depart="89.00" from="189649886#2" to="52067499#2" />
    <trip id="90" depart="90.00" from="4274835#4" to="189649893#4" />
    <trip id="91" depart="91.00" from="120704302#1" to="89290669#1" />
    <trip id="92" depart="92.00" from="88457621#6" to="4380303#0" />
    <trip id="93" depart="93.00" from="4380303#0" to="4985790#11" />
    <trip id="94" depart="94.00" from="157518929#5" to="210438335#0" />
    <trip id="95" depart="95.00" from="4274858#10" to="189800470#2" />
    <trip id="96" depart="96.00" from="211418717#1" to="89388048" />
    <trip id="97" depart="97.00" from="5076425" to="49680966#5" />
    <trip id="98" depart="98.00" from="-189649891#2" to="4252145#1" />
    <trip id="99" depart="99.00" from="4378789#6" to="23128194#3" />
    <trip id="100" depart="100.00" from="-41262183" to="212037080#1" />
    <trip id="101" depart="101.00" from="121250742#3" to="4985790#10" />
    <trip id="102" depart="102.00" from="4306145#8" to="189649891#1" />
    <trip id="103" depart="103.00" from="4599555#0" to="4599553#0" />
    <trip id="104" depart="104.00" from="201749676#6" to="140519371" />
    <trip id="105" depart="105.00" from="4252366" to="5073316#1" />
    <trip id="106" depart="106.00" from="220001147#0" to="4306145#1" />
    <trip id="107" depart="107.00" from="-189649890#3" to="4306139#5" />
    <trip id="108" depart="108.00" from="157518927#3" to="4985790#7" />
    <trip id="109" depart="109.00" from="-89272701#5" to="208005998#1" />
    <trip id="110" depart="110.00" from="5984523#0" to="209062897#1" />
    <trip id="111" depart="111.00" from="4170811#1" to="4274858#9" />
    <trip id="112" depart="112.00" from="83824142#0" to="209062897#2" />
    <trip id="113" depart="113.00" from="4306145#7" to="189649885" />
    <trip id="114" depart="114.00" from="26640660#2" to="4378833#0" />
    <trip id="115" depart="115.00" from="201749676#5" to="4378842#4" />
    <trip id="116" depart="116.00" from="201749676#6" to="109213554#3" />
    <trip id="117" depart="117.00" from="88457621#1" to="133023215" />
    <trip id="118" depart="118.00" from="189649893#0" to="4325173#2" />
    <trip id="119" depart="119.00" from="4360693#2" to="4378888#2" />
    <trip id="120" depart="120.00" from="-5073287#1" to="4170811#8" />
    <trip id="121" depart="121.00" from="212037077#1" to="109213554#0" />
    <trip id="122" depart="122.00" from="210438334#1" to="4360693#3" />
    <trip id="123" depart="123.00" from="189649893#0" to="189649893#2" />
    <trip id="124" depart="124.00" from="207572286#1" to="4599553#0" />
    <trip id="125" depart="125.00" from="5984487#0" to="4306139#1" />
    <trip id="126" depart="126.00" from="83800992#4" to="211418717#4" />
    <trip id="127" depart="127.00" from="-189649891#0" to="4274835#9" />
    <trip id="128" depart="128.00" from="85511741#2" to="183114714" />
    <trip id="129" depart="129.00" from="121250742#3" to="4170811#7" />
    <trip id="130" depart="130.00" from="4306145#2" to="4306139#4" />
    <trip id="131" depart="131.00" from="133023215" to="4378894" />
    <trip id="132" depart="132.00" from="83824142#1" to="209062897#3" />
    <trip id="133" depart="133.00" from="192922521#8" to="4985790#9" />
    <trip id="134" depart="134.00" from="210438334#2" to="220001147#2" />
    <trip id="135" depart="135.00" from="212037080#1" to="4252145#0" />
    <trip id="136" depart="136.00" from="44503646#0" to="-189649891#1" />
    <trip id="137" depart="137.00" from="192922521#2" to="5074475" />
    <trip id="138" depart="138.00" from="4599555#0" to="4306139#6" />
    <trip id="139" depart="139.00" from="192922521#7" to="4252366" />
    <trip id="140" depart="140.00" from="4599555#0" to="220001147#9" />
    <trip id="141" depart="141.00" from="5074416#4" to="4360693#3" />
    <trip id="142" depart="142.00" from="83800992#1" to="220001147#13" />
    <trip id="143" depart="143.00" from="4170811#5" to="4378888#1" />
    <trip id="144" depart="144.00" from="4360693#2" to="189649890#2" />
    <trip id="145" depart="145.00" from="4378789#0" to="4170811#7" />
    <trip id="146" depart="146.00" from="4274835#7" to="-89272701#5" />
    <trip id="147" depart="147.00" from="4985790#11" to="4306139#6" />
    <trip id="148" depart="148.00" from="189800470#2" to="4599554#1" />
    <trip id="149" depart="149.00" from="4378789#3" to="157518927#5" />
    <trip id="150" depart="150.00" from="4274858#11" to="4985790#12" />
    <trip id="151" depart="151.00" from="-4325174#0" to="89272701#1" />
    <trip id="152" depart="152.00" from="4378789#0" to="220001147#8" />
    <trip id="153" depart="153.00" from="5073285" to="4274858#11" />
    <trip id="154" depart="154.00" from="4345367#1" to="65092502#2" />
    <trip id="155" depart="155.00" from="65092504" to="4324362" />
    <trip id="156" depart="156.00" from="4274858#6" to="4274858#7" />
    <trip id="157" depart="157.00" from="58993645#1" to="4378789#1" />
    <trip id="158" depart="158.00" from="83800992#4" to="121674431#2" />
    <trip id="159" depart="159.00" from="4274835#6" to="4306145#1" />
    <trip id="160" depart="160.00" from="4170811#11" to="198512068" />
    <trip id="161" depart="161.00" from="220001147#5" to="5074474#0" />
    <trip id="162" depart="162.00" from="201749676#4" to="4378845#0" />
    <trip id="163" depart="163.00" from="89388048" to="4306139#3" />
    <trip id="164" depart="164.00" from="120509513" to="44503646#1" />
    <trip id="165" depart="165.00" from="5073282" to="4252110" />
    <trip id="166" depart="166.00" from="120704302#1" to="-189649891#1" />
    <trip id="167" depart="167.00" from="4252145#1" to="4378814#1" />
    <trip id="168" depart="168.00" from="4985790#7" to="4325176#0" />
    <trip id="169" depart="169.00" from="209062897#5" to="4170811#11" />
    <trip id="170" depart="170.00" from="4325175#1" to="4378890#1" />
    <trip id="171" depart="171.00" from="4378789#5" to="220001147#1" />
    <trip id="172" depart="172.00" from="4324352#4" to="-4325174#0" />
    <trip id="173" depart="173.00" from="83800991#1" to="65092504" />
    <trip id="174" depart="174.00" from="4274858#10" to="65092498" />
    <trip id="175" depart="175.00" from="89272701#1" to="208005998#2" />
    <trip id="176" depart="176.00" from="4985790#9" to="209062896" />
    <trip id="177" depart="177.00" from="89388048" to="157518927#4" />
    <trip id="178" depart="178.00" from="89388054" to="157518927#3" />
    <trip id="179" depart="179.00" from="4378778#1" to="4378838#1" />
    <trip id="180" depart="180.00" from="83824142#0" to="4324388#0" />
    <trip id="181" depart="181.00" from="65092502#2" to="4325173#2" />
    <trip id="182" depart="182.00" from="157518927#3" to="4306145#9" />
    <trip id="183" depart="183.00" from="4306139#9" to="157518927#1" />
    <trip id="184" depart="184.00" from="113476412#0" to="5073316#1" />
    <trip id="185" depart="185.00" from="192922521#1" to="26640660#3" />
    <trip id="186" depart="186.00" from="-4324355#1" to="58993645#1" />
    <trip id="187" depart="187.00" from="113476411#0" to="4378789#4" />
    <trip id="188" depart="188.00" from="4378789#1" to="4325176#2" />
    <trip id="189" depart="189.00" from="10591247" to="4306139#3" />
    <trip id="190" depart="190.00" from="49680966#4" to="189649886#1" />
    <trip id="191" depart="191.00" from="5073310#0" to="211418979" />
    <trip id="192" depart="192.00" from="5073310#1" to="-89272701#4" />
    <trip id="193" depart="193.00" from="121250742#3" to="4170811#14" />
    <trip id="194" depart="194.00" from="4306139#7" to="220001147#3" />
    <trip id="195" depart="195.00" from="-34407231" to="88457621#5" />
    <trip id="196" depart="196.00" from="4985790#12" to="85511738#0" />
    <trip id="197" depart="197.00" from="4306138#2" to="4170811#5" />
    <trip id="198" depart="198.00" from="4378778#1" to="4324388#0" />
    <trip id="199" depart="199.00" from="189649893#1" to="4274835#10" />
    <trip id="200" depart="200.00" from="-89272701#3" to="157518929#1" />
    <trip id="201" depart="201.00" from="83824141" to="220001147#12" />
    <trip id="202" depart="202.00" from="23128194#5" to="83800992#4" />
    <trip id="203" depart="203.00" from="4274835#11" to="5073287#2" />
    <trip id="204" depart="204.00" from="65092502#1" to="89290674#0" />
    <trip id="205" depart="205.00" from="52067499#2" to="49680966#9" />
    <trip id="206" depart="206.00" from="4324352#0" to="65092502#8" />
    <trip id="207" depart="207.00" from="189649886#1" to="207572286#1" />
    <trip id="208" depart="208.00" from="121250744#1" to="133157279" />
    <trip id="209" depart="209.00" from="4380334#0" to="4324375#3" />
    <trip id="210" depart="210.00" from="120509516" to="4274858#11" />
    <trip id="211" depart="211.00" from="4378842#3" to="209062897#6" />
    <trip id="212" depart="212.00" from="4985790#10" to="89272701#3" />
    <trip id="213" depart="213.00" from="85511738#0" to="-189649890#3" />
    <trip id="214" depart="214.00" from="4378814#0" to="4378888#2" />
    <trip id="215" depart="215.00" from="5074416#4" to="4274860#5" />
    <trip id="216" depart="216.00" from="31736005#0" to="189649890#3" />
    <trip id="217" depart="217.00" from="5984523#1" to="42930836" />
    <trip id="218" depart="218.00" from="220001147#3" to="208005998#1" />
    <trip id="219" depart="219.00" from="41262183" to="4360693#4" />
    <trip id="220" depart="220.00" from="-189649891#1" to="-4324355#1" />
    <trip id="221" depart="221.00" from="83800992#1" to="220001147#6" />
</trips>