<?xml version="1.0"?>

<!-- generated on Mon Oct  7 14:57:48 2013 by SUMO duarouter Version 0.16.0
<?xml version="1.0" encoding="UTF-8"?>

<configuration xmlns:xsi="http://www.w3.org/2001/XMLSchema-instance" xsi:noNamespaceSchemaLocation="http://sumo.sf.net/xsd/duarouterConfiguration.xsd">

    <input>
        <net-file value="data/map.net.xml"/>
        <trip-files value="data/map.trips.xml"/>
    </input>

    <output>
        <output-file value="data/map.rou.xml"/>
    </output>

    <processing>
        <ignore-errors value="true"/>
        <repair value="true"/>
    </processing>

</configuration>
-->

<routes xmlns:xsi="http://www.w3.org/2001/XMLSchema-instance" xsi:noNamespaceSchemaLocation="http://sumo.sf.net/xsd/routes_file.xsd">
<vType id="public_emergency" color="0,1,0"/>
    <vehicle id="0" depart="0.00">
        <route edges="-133023681#1 -133023681#0 49680966#5 5073316#0 5073316#1 -120509516 -120509513 4985790#1 4985790#2 4599556#0 4599556#1 4599555#3 4252366 4252145#0 4252145#1 -211743108 -133022681#1 4345367#0"/>
    </vehicle>
    <vehicle id="1" depart="1.00">
        <route edges="201749676#3 201749676#4 189649893#2 -4324355#2 -4324355#1 189649884 5074417#0 5074417#1 83800992#7 83800992#8 4274856#0 175016280#0 175016280#1 4324356#1 4170811#11 4324352#0 4324352#1 4324352#2 4325175#2 4380331#0 4380331#1 -89272701#3"/>
    </vehicle>
    <vehicle id="4" depart="4.00">
        <route edges="4378842#2 192922521#1 192922521#2 -4378814#1 -4378814#0 4324375#2 4324375#3 83800992#4 4378833#0 4378833#1 -4324355#1 189649884 5074417#0"/>
    </vehicle>
    <vehicle id="5" depart="5.00">
        <route edges="4360693#0 109213554#3 10591247 189649886#0 189649886#1 189649886#2"/>
    </vehicle>
    <vehicle id="6" depart="6.00">
        <route edges="220001147#10 65092502#3 65092502#4 65092502#5 65092502#6 65092502#7 65092502#8 88457621#0 88457621#1 88457621#2 88457621#3 88457621#4 88457621#5 88457621#6"/>
    </vehicle>
    <vehicle id="8" depart="8.00">
        <route edges="4306139#9 85511735 175016280#0 175016280#1 130630911#0 130630911#1 4378789#0 65092502#4 65092502#5 65092502#6 65092502#7"/>
    </vehicle>
    <vehicle id="9" depart="9.00">
        <route edges="157518927#1 157518927#2 157518927#3 157518927#4 157518927#5 157518927#6 157518929#0 157518929#1 157518929#2 4252366 4252145#0 4252145#1 88457621#0 88457621#1 88457621#2 88457621#3"/>
    </vehicle>
    <vehicle id="12" depart="12.00">
        <route edges="220001147#13 220001147#14 157518929#0 157518929#1 157518929#2 157518929#4 157518929#5 157518929#6 157518929#7 157518929#8 4274858#0 4274858#1 4274858#2 4274858#3 4274858#4 4274858#5 5073312#0 5073313"/>
    </vehicle>
    <vehicle id="14" depart="14.00">
        <route edges="83800992#5 83800992#7 109213554#0 109213554#1 83800991#0 83800991#1 133156135 49680966#0 4599555#0 4599555#1"/>
    </vehicle>
    <vehicle id="15" depart="15.00">
        <route edges="4306139#6 4306139#7 4306139#8 4306139#9 85511735 85511741#0 85511741#1 85511741#2 89388048 4324348#0 -4325174#0"/>
    </vehicle>
    <vehicle id="17" depart="17.00">
        <route edges="192922521#2 192922521#3 192922521#4 192922521#6 192922521#7 192922521#8 192922521#9 4274856#0 175016280#0 175016280#1 4324356#1 4170811#11 4170811#12 4170811#13 4325173#0 4325174#0"/>
    </vehicle>
    <vehicle id="18" depart="18.00">
        <route edges="133156135 113476411#1 113476411#2 4985790#8 4985790#9 4985790#10 4985790#11 4985790#12 10591247 189649890#1 189649890#2 189649890#3 189649893#0 189649893#1 189649893#2"/>
    </vehicle>
    <vehicle id="19" depart="19.00">
        <route edges="41262183 183114714 183114713 192922521#2 192922521#3 192922521#4 192922521#6 192922521#7 192922521#8 192922521#9 157518927#0 157518927#1 118498908#1 113476411#0 113476411#1 34407231"/>
    </vehicle>
    <vehicle id="20" depart="20.00">
        <route edges="-65092498 65092502#1 65092502#2 220001147#11 220001147#12 4170811#8 4170811#9 4170811#10 4170811#11 4170811#12 4306138#0 4306138#1 4306138#2 118498908#1 113476411#0 113476411#1 34407231"/>
    </vehicle>
    <vehicle id="21" depart="21.00">
        <route edges="4378789#5 4274860#2 4274860#3 210438335#0 -89272701#5 -89272701#4 -89272701#3 220001147#2 220001147#3 220001147#4 220001147#5 220001147#6 220001147#7 220001147#8 220001147#9 220001147#10 220001147#11 220001147#12 4170811#8 4170811#9 4170811#10 4170811#11 4170811#12 4306138#0 4306138#1 4306138#2 118498908#1 4324391#1 4324391#2 109213554#2 109213554#3 10591247 189649890#1 189649890#2 189649890#3 189649893#0 189649893#1"/>
    </vehicle>
    <vehicle id="22" depart="22.00">
        <route edges="4274835#10 4274835#11 4274835#12 -133023681#1 -133023681#0 49680966#5 5073316#0 5073316#1 -120509516 -120509513 4985790#1 4985790#2 4599556#0 4599556#1 4599555#3 4252366 4170811#4 4170811#5 4170811#6 4170811#7 4170811#8 4170811#9 4170811#10 4170811#11 4324352#0 4324352#1 4324352#2 4324352#3"/>
    </vehicle>
    <vehicle id="24" depart="24.00">
        <route edges="210438334#4 4170811#6 4170811#7 4170811#8 4170811#9 4170811#10 4170811#11 4170811#12 4170811#13 4170811#14 4170811#15 89388054 4378842#1 4378842#2 192922521#1 192922521#2 -4378814#1 -4378814#0 4324375#2 4324375#3 83800992#4 4378833#0 4378845#1 4378845#2 4378845#3 4324388#1"/>
    </vehicle>
    <vehicle id="25" depart="25.00">
        <route edges="4170811#13 4170811#14 4170811#15 89388054 4378842#1 4378842#2 192922521#1 192922521#2 -4378814#1 -4378814#0 4324375#2 4324375#3 83800992#4 4378833#0 4378845#1 4378845#2 4378845#3 4324388#1 39911870 58993645#0 58993645#1 58993645#2 58993645#3"/>
    </vehicle>
    <vehicle id="26" depart="26.00">
        <route edges="5073315#1 5073315#2 120509504 120509515 4274858#3 4274858#4 4274858#5 4274858#6"/>
    </vehicle>
    <vehicle id="27" depart="27.00">
        <route edges="133159028#1 4306145#7 4306145#8 4306145#9 4324391#0 113476411#0 49680966#0"/>
    </vehicle>
    <vehicle id="28" depart="28.00">
        <route edges="211418717#0 211418717#1 211418717#2 59153652#1 212037077#0 212037077#1 212037077#2 88457621#1 88457621#2 88457621#3 88457621#4 209062897#0 209062897#1 209062897#2 209062897#3 209062897#4 4378789#4 4378789#5 4274860#2 4274860#3 4274860#4"/>
    </vehicle>
    <vehicle id="29" depart="29.00">
        <route edges="4252110 157518929#6 157518929#7 157518929#8 4274858#0 4274858#1 4274858#2 4274858#3 4274858#4 4274858#5 5073312#0 5073313 49680966#9"/>
    </vehicle>
    <vehicle id="32" depart="32.00">
        <route edges="4325175#0 4325175#1"/>
    </vehicle>
    <vehicle id="33" depart="33.00">
        <route edges="4324352#0 65092502#2 220001147#11 220001147#12 4170811#8 4170811#9 4170811#10 4170811#11 4170811#12 4306138#0 4306138#1 4306138#2 118498908#1 4324391#1 4324391#2 109213554#2 109213554#3 10591247 189649890#1 189649890#2 189649890#3 189649893#0 4378868#3 4378833#4 -189649890#2 -189649890#1 -10591247"/>
    </vehicle>
    <vehicle id="34" depart="34.00">
        <route edges="4170811#9 4170811#10 4170811#11 4324352#0 65092502#2 220001147#11 220001147#12 220001147#13 220001147#14 4274835#0 4274835#1 4274835#2 4274835#3 4274835#4 4274835#5 4274835#6 4274835#7 49680966#3"/>
    </vehicle>
    <vehicle id="35" depart="35.00">
        <route edges="157518927#2 157518927#3 157518927#4 157518927#5 157518927#6 157518929#0 157518929#1 157518929#2 157518929#4 157518929#5 157518929#6 157518929#7 157518929#8 4274846#1 4274846#2 22701333"/>
    </vehicle>
    <vehicle id="36" depart="36.00">
        <route edges="109213554#0 85511738#1 5074417#1 83800992#7 83800992#8 157518927#0 157518927#1 157518927#2 157518927#3 157518927#4 157518927#5 157518927#6 157518929#0 157518929#1 157518929#2 4252366 4252145#0 4252145#1 88457621#0 88457621#1 88457621#2 25420703"/>
    </vehicle>
    <vehicle id="37" depart="37.00">
        <route edges="136975091#2 4985790#9 4985790#10 4985790#11 4985790#12 10591247 189649890#1 189649890#2 189649890#3 189649893#0 4378868#3 4378833#4 -189649890#2 -189649890#1 -10591247"/>
    </vehicle>
    <vehicle id="38" depart="38.00">
        <route edges="157518929#6 157518929#7 157518929#8 4985790#0 4985790#1 4985790#2 4985790#3 4985790#4 4985790#5 4985790#6 4985790#7 4985790#8 4985790#9 4985790#10 4985790#11 4985790#12 10591247 189649890#1 189649890#2 189649890#3 189649891#0 189649891#1 5076425 83824140 83824141 4378868#1 4378868#2"/>
    </vehicle>
    <vehicle id="39" depart="39.00">
        <route edges="5073315#0 5073315#1 5073310#0 5073312#2 5073316#1 -120509516 -120509513 4985790#1 4985790#2 4985790#3 4985790#4 4985790#5 4985790#6 4985790#7 4985790#8 4985790#9 4985790#10 4985790#11 4985790#12 10591247 189649890#1 189649890#2 189649890#3 189649891#0 189649891#1 5076425 83824140 83824141 4378846#0 4378846#1 121250744#2"/>
    </vehicle>
    <vehicle id="40" depart="40.00">
        <route edges="157518927#2 157518927#3 157518927#4 157518927#5 157518927#6 4274835#0 4274835#1 4274835#2 4274835#3 4274835#4 4274835#5 4274835#6 4274835#7 4274835#8 4274835#9 4985790#5 4985790#6 4985790#7 4985790#8 4985790#9 4985790#10 4985790#11 4985790#12 10591247 189649890#1 189649890#2 189649890#3 189649893#0 189649893#1 189649893#2 -4324355#2"/>
    </vehicle>
    <vehicle id="41" depart="41.00">
        <route edges="208005998#0 208005998#1 208005998#2 211418979 4274846#2 89290669#0 89290669#1 89290669#2 4345367#0 4345367#1 4345367#2 4170811#2 4170811#3 4170811#4 4170811#5 4170811#6 4170811#7 4170811#8 4170811#9 4170811#10 4170811#11 4170811#12 4170811#13 4170811#14 4170811#15 89388054 4378842#1 4378842#2 192922521#1 192922521#2 -4378814#1 -4378814#0 4324375#2 4324375#3 83800992#4"/>
    </vehicle>
    <vehicle id="42" depart="42.00">
        <route edges="-89272701#3 220001147#2 220001147#3 220001147#4 220001147#5 44503646#0 4378789#3"/>
    </vehicle>
    <vehicle id="43" depart="43.00">
        <route edges="210438334#5 157518929#2 4252366 4170811#4 4170811#5 4170811#6 4170811#7 4170811#8 4170811#9 4170811#10 4170811#11 4170811#12 4170811#13 4170811#14 4170811#15 4324369#1"/>
    </vehicle>
    <vehicle id="45" depart="45.00">
        <route edges="60465708#1 189649886#0 189649886#1 189649886#2 189649884 5074417#0 5074417#1 89388040 89388037 89388042"/>
    </vehicle>
    <vehicle id="46" depart="46.00">
        <route edges="5073312#0 5073312#1 5073312#2 5073316#1 -120509516 -120509513 4985790#1 4985790#2 4985790#3 4985790#4 4985790#5 4306145#6 4306145#7 4306145#8 4306145#9 4324391#0 4324391#1 4306139#8 85511738#0"/>
    </vehicle>
    <vehicle id="47" depart="47.00">
        <route edges="4274835#12 -133023681#1 -133023681#0 49680966#5 5073316#0 5073316#1 -120509516 -120509513 4985790#1 4985790#2 4985790#3 4985790#4 4985790#5 4985790#6 4985790#7 4985790#8 4985790#9 4985790#10 4985790#11 4985790#12 10591247 189649890#1 189649890#2 189649890#3 189649891#0 189649891#1 5076425 83824140 83824141 4378846#0 4378846#1 121250744#2 4324363#3"/>
    </vehicle>
    <vehicle id="50" depart="50.00">
        <route edges="85511738#0 109213554#1 83800991#0 83800991#1 133156135 49680966#0 49680966#1 49680966#2"/>
    </vehicle>
    <vehicle id="51" depart="51.00">
        <route edges="189649885 5074476 5074474#0 5074474#1 189800470#0 4378842#1 4378842#2 192922521#1 192922521#2 192922521#3 192922521#4 192922521#6 192922521#7 140519371 109213554#0 109213554#1 83800991#0 83800991#1 4378894 4360693#3 4360693#4 133157279"/>
    </vehicle>
    <vehicle id="52" depart="52.00">
        <route edges="44503646#1 4325176#3 209062897#4 209062897#5 209062897#6 220001147#3 220001147#4 220001147#5 220001147#6 220001147#7 220001147#8 220001147#9 220001147#10 220001147#11 220001147#12 4170811#8 4170811#9 4170811#10 4170811#11 4170811#12 4306138#0 4378879 4378878"/>
    </vehicle>
    <vehicle id="53" depart="53.00">
        <route edges="201749676#3 121250742#3"/>
    </vehicle>
    <vehicle id="54" depart="54.00">
        <route edges="4985790#3 4985790#4 4985790#5 4306145#6 4306145#7 4306145#8 4306145#9 4324391#0 4324391#1 4306139#8 85511738#0 109213554#1"/>
    </vehicle>
    <vehicle id="55" depart="55.00">
        <route edges="85511741#2 89388048 4170811#15 89388054 4378842#1 4378842#2 192922521#1 192922521#2 -4378814#1 -4378814#0 4324375#2 4324375#3 83800992#4 4378833#0 4378845#1 4378845#2 4378845#3 4324388#1 39911870"/>
    </vehicle>
    <vehicle id="56" depart="56.00">
        <route edges="121250742#0 4378845#3 4324388#1 83800992#1 83800992#2 83800992#4 83800992#5 83800992#7 83800992#8 157518927#0 157518927#1 157518927#2 157518927#3 157518927#4 157518927#5 157518927#6 157518929#0 157518929#1 157518929#2 157518929#4 157518929#5 157518929#6 157518929#7 157518929#8 4985790#0 120509513 120509516 5073315#0 5073315#1 5073315#2"/>
    </vehicle>
    <vehicle id="57" depart="57.00">
        <route edges="157518929#6 157518929#7 157518929#8 4170811#0 4170811#1 4170811#2 4170811#3 4170811#4 4170811#5 4170811#6 4170811#7 4170811#8 4170811#9 4170811#10 4170811#11 4170811#12 4306138#0 4306138#1 4306138#2 5075464 4306139#9 85511735"/>
    </vehicle>
    <vehicle id="58" depart="58.00">
        <route edges="133818200#1 133818200#2 133818200#3 4274858#2 4274858#3 4274858#4 4274858#5 5073312#0 5073312#1 5073312#2 5073316#1 -120509516 -120509513 4985790#1 4985790#2 4985790#3 4985790#4 4985790#5 4306145#6 4306145#7 4306145#8 4306145#9 4324391#0 4324391#1 4306139#8 4306139#9 85511735 175016280#0"/>
    </vehicle>
    <vehicle id="59" depart="59.00">
        <route edges="133818200#3 4274858#2 4274858#3 4274858#4 4274858#5 5073312#0 5073312#1 5073312#2 5073316#1 -120509516 -120509513 4985790#1 4985790#2 4599556#0 4599556#1 4599555#3 4252366 4170811#4 4170811#5 4170811#6 4170811#7 4170811#8 4170811#9 4170811#10 4170811#11 4170811#12 4170811#13 4170811#14 4170811#15 4324369#1"/>
    </vehicle>
    <vehicle id="60" depart="60.00">
        <route edges="83800992#8 4274856#0 175016280#0 175016280#1 4324356#1 4170811#11 4324352#0 4324352#1 4324352#2 4325175#2 4380331#0 209062897#6 4380303#0"/>
    </vehicle>
    <vehicle id="62" depart="62.00">
        <route edges="4378814#0 4378814#1 192922521#3 192922521#4 192922521#6 192922521#7 192922521#8 192922521#9 157518927#0 157518927#1 157518927#2 157518927#3 157518927#4 157518927#5 157518927#6 4274835#0 4274835#1 4274835#2 4274835#3 4274835#4 4274835#5 4274835#6 4274835#7 4274835#8 4274835#9 4274835#10"/>
    </vehicle>
    <vehicle id="65" depart="65.00">
        <route edges="220001147#6 220001147#7 220001147#8 220001147#9 220001147#10 220001147#11 220001147#12 4170811#8 4170811#9 4170811#10 4170811#11 4170811#12 4306138#0 4306138#1 4306138#2 118498908#1 4324391#1 4324391#2 109213554#2 109213554#3 10591247 189649890#1 189649890#2 189649890#3 189649891#0 189649891#1 189649891#2 83824142#0 4378888#2 -189649891#2"/>
    </vehicle>
    <vehicle id="67" depart="67.00">
        <route edges="4325175#1 4325175#2 220001147#6 220001147#7 220001147#8 220001147#9 220001147#10 220001147#11 220001147#12 220001147#13 220001147#14 157518929#0 157518929#1 157518929#2 157518929#4 157518929#5 157518929#6 157518929#7 157518929#8 4274858#0 4274858#1 4274858#2 4274858#3 4274858#4 4274858#5 5073312#0 5073313 49680966#9"/>
    </vehicle>
    <vehicle id="68" depart="68.00">
        <route edges="4378888#2 -189649891#2 -189649891#1 -189649891#0 -189649890#3 -189649890#2 -189649890#1 189649886#0 189649886#1 189649886#2 189649884 5074417#0 5074417#1 83800992#7"/>
    </vehicle>
    <vehicle id="70" depart="70.00">
        <route edges="209062897#5 209062897#6 220001147#3 220001147#4 220001147#5 220001147#6 220001147#7 220001147#8 220001147#9 220001147#10 220001147#11 220001147#12 220001147#13 220001147#14 4274835#0 4274835#1 4274835#2 4274835#3 4274835#4 4274835#5 4274835#6"/>
    </vehicle>
    <vehicle id="71" depart="71.00">
        <route edges="89272701#5 210438335#1 209062897#3 209062897#4 209062897#5 209062897#6 220001147#3 220001147#4 220001147#5 220001147#6 220001147#7 220001147#8 220001147#9 220001147#10 220001147#11 220001147#12 4170811#8 4170811#9 4170811#10 4170811#11 4170811#12 4170811#13 4170811#14 4170811#15 89388054 4378842#1 4378838#1 -4378919#1 -4378919#0"/>
    </vehicle>
    <vehicle id="72" depart="72.00">
        <route edges="120704302#0 4599554#0 4599556#1 4599555#3 4252366 4170811#4 4170811#5 4170811#6 4170811#7 4170811#8 4170811#9 4170811#10 4170811#11 4170811#12 4306138#0 4378879 4378878 4324369#2 140519371 109213554#0"/>
    </vehicle>
    <vehicle id="73" depart="73.00">
        <route edges="4324356#0 4324356#1 4170811#11 4170811#12 4306138#0 4378879 4378878 4324369#2 140519371 109213554#0 109213554#1"/>
    </vehicle>
    <vehicle id="75" depart="75.00">
        <route edges="41059977#1 -4380298#0 4324375#3 83800992#4 83800992#5 83800992#7 83800992#8 4274856#0 175016280#0 175016280#1 4324356#1 4170811#11 4324352#0 4324352#1 212037080#1 212037080#2 113554147#2 4252142 65092505"/>
    </vehicle>
    <vehicle id="76" depart="76.00">
        <route edges="4378868#1 121250742#4 -189649891#0 -189649890#3 -189649890#2 -189649890#1 189649886#0 189649886#1 189649886#2 189649884 5074417#0 5074417#1 83800992#7 83800992#8 4274856#0 175016280#0 175016280#1 130630911#0 130630911#1 4378789#0 65092502#4 65092502#5 210438334#2 210438334#3"/>
    </vehicle>
    <vehicle id="77" depart="77.00">
        <route edges="4324352#1 4324352#2 4325175#2 220001147#6 220001147#7 220001147#8 220001147#9 220001147#10 220001147#11 220001147#12 220001147#13 220001147#14 4274835#0 4274835#1 4274835#2 4274835#3 4274835#4 4274835#5 4274835#6 4274835#7 4274835#8 4274835#9 4274835#10 4274835#11 4274835#12 4274835#13 4274835#14 4274835#15 4274835#16"/>
    </vehicle>
    <vehicle id="78" depart="78.00">
        <route edges="189649884 5074417#0 5074417#1 83800992#7 83800992#8 4274856#0 85511741#0 85511741#1 85511741#2 89388048 4324348#0 -4325174#0"/>
    </vehicle>
    <vehicle id="79" depart="79.00">
        <route edges="208005999#5 220001147#9 220001147#10 220001147#11 220001147#12 4170811#8 4170811#9 4170811#10 4170811#11 4170811#12 4306138#0 4306138#1 4306138#2 118498908#1 4324391#1 4324391#2 109213554#2 109213554#3 10591247 189649890#1 189649890#2 189649890#3 189649893#0 189649893#1 189649893#2 121250744#0 121250742#2"/>
    </vehicle>
    <vehicle id="81" depart="81.00">
        <route edges="4378842#2 192922521#1 192922521#2 192922521#3 192922521#4 192922521#6 192922521#7 140519371 109213554#0 109213554#1 83800991#0 83800991#1 4378894"/>
    </vehicle>
    <vehicle id="82" depart="82.00">
        <route edges="208005998#1 208005998#2 211418979 4274846#2 89290669#0 89290669#1 89290669#2 4345367#0 4345367#1 4345367#2 4170811#2 4170811#3 4170811#4 4170811#5 4170811#6 4170811#7 220001147#13 220001147#14 157518929#0 157518929#1 157518929#2 120704302#0 120704302#1 4985790#2 4985790#3"/>
    </vehicle>
    <vehicle id="83" depart="83.00">
        <route edges="121250742#2 201749676#4 189649893#2 -4324355#2 -4324355#1 189649884 189649885 5074476"/>
    </vehicle>
    <vehicle id="84" depart="84.00">
        <route edges="109213539 4324369#1 4324369#2 140519371 109213554#0 109213554#1 83800991#0 83800991#1 4378894 4360693#3 4306139#6"/>
    </vehicle>
    <vehicle id="85" depart="85.00">
        <route edges="89388048 4170811#15 89388054 4378842#1 4378842#2 192922521#1 192922521#2 -4378814#1 -4378814#0 4324375#2 4324375#3 83800992#4 4378833#0 4378845#1 4378845#2 4378845#3 4324388#1 39911870 58993645#0 58993645#1"/>
    </vehicle>
    <vehicle id="86" depart="86.00">
        <route edges="5073315#1 5073310#0 5073312#2 5073316#1 -120509516 -120509513 4985790#1 4985790#2 4599556#0 4599556#1 4599555#3 4252366 4170811#4 4170811#5 4170811#6"/>
    </vehicle>
    <vehicle id="87" depart="87.00">
        <route edges="31736005#0 31736005#1 4380299 4378814#1 192922521#3 192922521#4 192922521#6 192922521#7 192922521#8 192922521#9 4274856#0 175016280#0 175016280#1 130630911#0 130630911#1 4378789#0 65092502#4 4325176#1 208005999#4"/>
    </vehicle>
    <vehicle id="88" depart="88.00">
        <route edges="208005999#3 208005999#4 208005999#5 220001147#9 220001147#10 220001147#11 220001147#12 4170811#8 4170811#9 4170811#10 4170811#11 4170811#12 4306138#0 4306138#1 4306138#2 118498908#1 4324391#1 4324391#2 109213554#2 109213554#3 10591247 189649890#1 189649890#2 189649890#3 189649893#0 4378868#3 5074415"/>
    </vehicle>
    <vehicle id="89" depart="89.00">
        <route edges="189649886#2 189649884 5074417#0 5074417#1 83800992#7 83800992#8 157518927#0 157518927#1 157518927#2 157518927#3 157518927#4 157518927#5 157518927#6 157518929#0 157518929#1 157518929#2 4252366 4252145#0 4252145#1 -211743108 4344720 211418717#0 211418717#1 211418717#2 59153652#1 59153652#2 52067499#0 52067499#1 52067499#2"/>
    </vehicle>
    <vehicle id="90" depart="90.00">
        <route edges="4274835#4 4274835#5 4274835#6 4274835#7 4274835#8 4274835#9 4985790#5 4985790#6 4985790#7 4985790#8 4985790#9 4985790#10 4985790#11 4985790#12 10591247 189649890#1 189649890#2 189649890#3 189649893#0 189649893#1 189649893#2 189649893#3 189649893#4"/>
    </vehicle>
    <vehicle id="91" depart="91.00">
        <route edges="120704302#1 4985790#2 4599556#0 4599556#1 4599555#3 157518929#4 157518929#5 157518929#6 157518929#7 157518929#8 4274846#1 4274846#2 89290669#0 89290669#1"/>
    </vehicle>
    <vehicle id="93" depart="93.00">
        <route edges="4380303#0 4380303#1 121674431#2 4325175#1 4325175#2 220001147#6 220001147#7 220001147#8 220001147#9 220001147#10 220001147#11 220001147#12 220001147#13 220001147#14 4274835#0 4274835#1 4274835#2 4274835#3 4274835#4 4274835#5 4274835#6 4274835#7 4274835#8 4274835#9 4985790#5 4985790#6 4985790#7 4985790#8 4985790#9 4985790#10 4985790#11"/>
    </vehicle>
    <vehicle id="94" depart="94.00">
        <route edges="157518929#5 157518929#6 157518929#7 157518929#8 4170811#0 4170811#1 4170811#2 4170811#3 4170811#4 4170811#5 4170811#6 4170811#7 4170811#8 130630911#1 4378789#0 4378789#1 4378789#2 4378789#3 4378789#4 4378789#5 4274860#2 4274860#3 210438335#0"/>
    </vehicle>
    <vehicle id="96" depart="96.00">
        <route edges="211418717#1 211418717#2 59153652#1 212037077#0 212037077#1 212037077#2 208005999#0 208005999#1 208005999#2 210438334#1 210438334#2 210438334#3 210438334#4 4170811#6 4170811#7 4170811#8 4170811#9 4170811#10 4170811#11 4170811#12 4306138#0 4378879 85511741#2 89388048"/>
    </vehicle>
    <vehicle id="97" depart="97.00">
        <route edges="5076425 83824140 83824141 4378846#0 201749676#3 201749676#4 189649893#2 -4324355#2 -4324355#1 133155519 83800991#0 83800991#1 133156135 49680966#0 49680966#1 49680966#2 49680966#3 49680966#4 49680966#5"/>
    </vehicle>
    <vehicle id="98" depart="98.00">
        <route edges="-189649891#2 -189649891#1 -189649891#0 -189649890#3 -189649890#2 -189649890#1 189649886#0 189649886#1 189649886#2 189649884 5074417#0 5074417#1 83800992#7 83800992#8 157518927#0 157518927#1 157518927#2 157518927#3 157518927#4 157518927#5 157518927#6 157518929#0 157518929#1 157518929#2 4252366 4252145#0 4252145#1"/>
    </vehicle>
    <vehicle id="100" depart="100.00">
        <route edges="-41262183 4380299 4378814#1 192922521#3 192922521#4 192922521#6 192922521#7 192922521#8 192922521#9 4274856#0 175016280#0 175016280#1 4324356#1 4170811#11 4324352#0 4324352#1 212037080#1"/>
    </vehicle>
    <vehicle id="101" depart="101.00">
        <route edges="121250742#3 121250742#4 -189649891#0 -189649890#3 -189649890#2 -189649890#1 189649886#0 189649886#1 4360693#0 4360693#1 4360693#2 4360693#3 4360693#4 133157279 4985790#9 4985790#10"/>
    </vehicle>
    <vehicle id="102" depart="102.00">
        <route edges="4306145#8 4306145#9 4324391#0 4324391#1 4324391#2 109213554#2 109213554#3 10591247 189649890#1 189649890#2 189649890#3 189649891#0 189649891#1"/>
    </vehicle>
    <vehicle id="103" depart="103.00">
        <route edges="4599555#0 4306145#9 4306145#10 4306145#11 4324356#0 130630911#0 130630911#1 4378789#0 65092502#4 4325176#1 4325176#2 210438336 210438335#3 4599553#0"/>
    </vehicle>
    <vehicle id="104" depart="104.00">
        <route edges="201749676#6 5074416#4 189649886#1 189649886#2 189649884 5074417#0 5074417#1 5074417#3 5074417#4 192922521#6 192922521#7 140519371"/>
    </vehicle>
    <vehicle id="105" depart="105.00">
        <route edges="4252366 4170811#4 4170811#5 4170811#6 4170811#7 220001147#13 220001147#14 157518929#0 157518929#1 157518929#2 157518929#4 157518929#5 157518929#6 157518929#7 157518929#8 4274858#0 4274858#1 4274858#2 4274858#3 4274858#4 4274858#5 5073312#0 5073312#1 5073312#2 5073316#1"/>
    </vehicle>
    <vehicle id="107" depart="107.00">
        <route edges="-189649890#3 -189649890#2 -189649890#1 189649886#0 189649886#1 4360693#0 4360693#1 4360693#2 4360693#3 4360693#4 133157279 4985790#9 4306139#5"/>
    </vehicle>
    <vehicle id="108" depart="108.00">
        <route edges="157518927#3 157518927#4 157518927#5 157518927#6 4274835#0 4274835#1 4274835#2 4274835#3 4274835#4 4274835#5 4274835#6 4274835#7 4274835#8 4274835#9 4985790#5 4985790#6 4985790#7"/>
    </vehicle>
    <vehicle id="109" depart="109.00">
        <route edges="-89272701#5 -89272701#4 -89272701#3 220001147#2 220001147#3 220001147#4 220001147#5 220001147#6 220001147#7 220001147#8 220001147#9 220001147#10 65092502#3 65092502#4 65092502#5 65092502#6 65092502#7 65092502#8 -211743108 4344720 211418717#0 211418717#1 211418717#2 211418717#3 208005998#1"/>
    </vehicle>
    <vehicle id="110" depart="110.00">
        <route edges="5984523#0 5984523#1 -133023681#0 49680966#5 5073316#0 5073316#1 -120509516 -120509513 4985790#1 4985790#2 4599556#0 4599556#1 4599555#3 4252366 4252145#0 4252145#1 88457621#0 88457621#1 88457621#2 88457621#3 88457621#4 209062897#0 209062897#1"/>
    </vehicle>
    <vehicle id="111" depart="111.00" type="public_emergency" >
        <route edges="4170811#1 4170811#2 4170811#3 4170811#4 4170811#5 4170811#6 4170811#7 220001147#13 220001147#14 157518929#0 157518929#1 157518929#2 157518929#4 157518929#5 157518929#6 157518929#7 157518929#8 4274858#0 4274858#1 4274858#2 4274858#3 4274858#4 4274858#5 4274858#6 4274858#7 4274858#8 4274858#9"/>
    </vehicle>
    <vehicle id="112" depart="112.00">
        <route edges="83824142#0 4378888#2 -189649891#2 -189649891#1 -189649891#0 -189649890#3 -189649890#2 -189649890#1 189649886#0 189649886#1 189649886#2 189649884 5074417#0 5074417#1 83800992#7 83800992#8 4274856#0 175016280#0 175016280#1 130630911#0 130630911#1 4378789#0 65092502#4 65092502#5 65092502#6 4378890#0 4378890#1 4378890#2 4378890#3 209062897#1 209062897#2"/>
    </vehicle>
    <vehicle id="113" depart="113.00">
        <route edges="4306145#7 49680966#2 4274835#8 4274835#9 4985790#5 4985790#6 4985790#7 4985790#8 4985790#9 4985790#10 4985790#11 4985790#12 10591247 189649886#0 189649886#1 189649886#2 189649884 189649885"/>
    </vehicle>
    <vehicle id="115" depart="115.00">
        <route edges="201749676#5 4378833#3 4378833#4 189649890#3 189649891#0 189649891#1 5076425 83824140 83824141 4378846#0 4378846#1 121250744#2 4324363#3 4324388#0 4324388#1 39911870 58993645#0 58993645#1 58993645#2 58993645#3 4378842#4"/>
    </vehicle>
    <vehicle id="116" depart="116.00">
        <route edges="201749676#6 5074416#4 189649886#1 4360693#0 109213554#3"/>
    </vehicle>
    <vehicle id="118" depart="118.00">
        <route edges="189649893#0 189649893#1 189649893#2 -4324355#2 -4324355#1 189649884 5074417#0 5074417#1 83800992#7 83800992#8 4274856#0 85511741#0 85511741#1 85511741#2 89388048 4324348#0 -4325174#0 4325173#1 4325173#2"/>
    </vehicle>
    <vehicle id="119" depart="119.00">
        <route edges="4360693#2 4360693#3 4360693#4 133157279 4985790#9 4985790#10 4985790#11 4985790#12 10591247 189649890#1 189649890#2 189649890#3 189649891#0 189649891#1 189649891#2 83824142#0 4378888#2"/>
    </vehicle>
    <vehicle id="121" depart="121.00">
        <route edges="212037077#1 212037077#2 208005999#0 208005999#1 208005999#2 210438334#1 210438334#2 210438334#3 210438334#4 4170811#6 4170811#7 4170811#8 4170811#9 4170811#10 4170811#11 4170811#12 4306138#0 4378879 4378878 4324369#2 140519371 109213554#0"/>
    </vehicle>
    <vehicle id="122" depart="122.00">
        <route edges="210438334#1 210438334#2 210438334#3 210438334#4 4170811#6 4170811#7 4170811#8 4170811#9 4170811#10 4170811#11 4170811#12 4306138#0 4306138#1 4306138#2 118498908#1 113476411#0 -133156135 4378894 4360693#3"/>
    </vehicle>
    <vehicle id="123" depart="123.00">
        <route edges="189649893#0 189649893#1 189649893#2"/>
    </vehicle>
    <vehicle id="124" depart="124.00">
        <route edges="207572286#1 207572286#2 207572286#3 4170811#0 4170811#1 4170811#2 4170811#3 4170811#4 4170811#5 4170811#6 4325176#0 4325176#1 4325176#2 210438336 210438335#3 4599553#0"/>
    </vehicle>
    <vehicle id="126" depart="126.00">
        <route edges="83800992#4 83800992#5 83800992#7 83800992#8 157518927#0 157518927#1 157518927#2 157518927#3 157518927#4 157518927#5 157518927#6 157518929#0 157518929#1 157518929#2 4252366 4252145#0 4252145#1 -211743108 4344720 211418717#0 211418717#1 211418717#2 211418717#3 211418717#4"/>
    </vehicle>
    <vehicle id="127" depart="127.00">
        <route edges="-189649891#0 -189649890#3 -189649890#2 -189649890#1 189649886#0 189649886#1 189649886#2 133155519 83800991#0 83800991#1 133156135 49680966#0 49680966#1 49680966#2 4274835#8 4274835#9"/>
    </vehicle>
    <vehicle id="128" depart="128.00">
        <route edges="85511741#2 89388048 4170811#15 89388054 4378842#1 4378842#2 192922521#1 192922521#2 -4378814#1 -4378814#0 4324375#2 4380298#0 31736005#0 31736005#1 41262183 183114714"/>
    </vehicle>
    <vehicle id="129" depart="129.00">